  # total energy = -7877.62784248 
CRSYTAL
PRIMVEC
    15.2000000000000000    0.0000000000000000    0.0000000000000000
     0.0000000000000000   15.2000000000000000    0.0000000000000000
     0.0000000000000000    0.0000000000000000    17.000000000000000
PRESSURE
8.07963 7.69328 1.80446 0.029334 -0.181547 -0.025721
PRIMCOORD
320 1
Pb       3.93020      3.71702      4.18852        -0.487334     -0.006264      0.361993
Pb       3.56847      3.65019     16.97134        -0.222272      0.215909     -0.346119
Pb       4.00102     14.93864      4.14071        -0.886170      0.684118      1.175678
Pb       3.69768     15.13870     16.98031        -0.111736      0.092917     -0.223236
Pb      15.17441      3.64399      4.27748        -0.448504     -0.110287     -0.308737
Pb      15.04438      3.86925     16.95475         1.323513     -0.309584      0.815517
Pb      15.17804     14.92561      4.09801        -0.574499      0.737155      1.084440
Pb      15.11259      0.04144      0.04095         0.245782     -0.316866     -0.041681
Pb       3.50367      3.81543      8.53813         0.780655     -0.069481      0.350347
Pb       3.77433      0.16977      8.19142        -0.232540     -0.925463      1.876158
Pb      15.04644      3.82773      8.33484         0.449468     -0.376741      0.661197
Pb       0.18465      0.11645      8.34764        -0.312629     -0.401977      0.201733
Pb       3.74879      3.76556     12.83475        -0.107928      0.296601     -0.684796
Pb       3.80000     15.16239     12.67757        -0.199592      0.159165     -0.133209
Pb      15.15410      3.76028     12.82003        -0.287212      0.113112     -0.775056
Pb      15.06709     15.09204     12.60243        -0.043906      0.793001      0.137373
Pb       3.89197      7.43489      4.14058        -0.996995      1.005948      0.298712
Pb       3.68579      7.47106      0.02103        -0.188071      0.741505     -0.582389
Pb       0.00762      7.35098      4.23224         0.328780      0.474298     -0.258576
Pb      15.17135      7.56274      0.20441         0.401485     -0.018532     -0.212050
Pb       3.75141      7.48930      8.58576        -0.280089      0.387533     -0.044733
Pb       0.05729      7.69609      8.49011         0.402361     -0.509698      0.321174
Pb       3.78594      7.76663     12.91227         0.055625      0.163143     -0.440540
Pb      15.17577      7.77594     12.91571        -0.202703     -0.153154     -1.253574
Pb       4.07543     11.32371      4.13722        -0.957790      0.079622      0.626537
Pb       3.62234     11.38250     16.66829         0.642447     -0.233074      1.249204
Pb       0.05160     11.24251      4.25021        -0.014481      0.449126     -0.185329
Pb      15.05894     11.36646      0.04298         0.473314      0.370067     -0.138341
Pb       3.82080     11.37958      8.35576        -0.079973     -0.164174      0.659689
Pb       0.08164     11.35952      8.43250         0.430199      0.560975      0.100210
Pb       3.90446     11.52757     12.64837        -0.136658     -0.499494     -0.148334
Pb       0.01951     11.62166     12.62322        -0.234406     -0.814198      0.009672
Pb       7.63503      3.87367      4.32134         0.325661     -0.562725      0.052082
Pb       7.59636      3.78221     16.94893         0.043563     -0.254236     -0.444784
Pb       7.58140      0.04893      4.23980        -0.101770     -0.097090      0.634456
Pb       7.49606      0.01166     16.95128        -0.050407     -0.063098     -0.697572
Pb       7.35054      3.79327      8.63769         0.338354      0.382699     -0.174066
Pb       7.51087      0.05344      8.58769         0.252386     -0.173919     -0.174754
Pb       7.60404      3.67101     12.67922         0.079558      0.283080     -0.430427
Pb       7.58533     15.15227     12.71915         0.181174     -0.053401     -0.118457
Pb       7.36794      7.54477      4.23487         1.013526      0.319440      0.221935
Pb       7.73373      7.38717     16.99370        -0.338184      1.358625      0.235968
Pb       7.58093      7.51123      8.63006        -0.181098     -0.056879      0.134484
Pb       7.74953      7.60463     12.82185        -0.694813      0.170338     -0.740372
Pb       7.68170     11.47627      4.18280        -0.482849      0.061537      0.492762
Pb       7.47778     11.28855     16.97960         0.233628      0.204023     -0.188068
Pb       7.64711     11.23542      8.44411        -0.618416      0.741100      1.084733
Pb       7.70771     11.44296     12.82613        -0.553482     -0.354667     -0.554252
Pb      11.36616      3.77717      4.37045        -0.314693     -0.364017      0.023756
Pb      11.38591      3.95094     16.94155        -0.524932     -0.651127      0.223735
Pb      11.27171     15.19071      4.28803         0.343489     -0.011440      0.233211
Pb      11.26169      0.07356      0.03365         0.420776     -0.011170     -0.578691
Pb      11.33165      3.76670      8.48898        -0.182208     -0.292398     -0.140561
Pb      11.46198     15.13276      8.67444        -0.165709      0.542174     -0.831719
Pb      11.47771      3.79180     12.63344        -0.406723      0.027638      0.090148
Pb      11.31989      0.01704     12.74186         0.866513     -0.104727      0.273505
Pb      11.32920      7.40670      4.34676        -0.079133      0.511921     -0.389975
Pb      11.42054      7.61295      0.12247        -0.300648     -0.069067     -0.578692
Pb      11.51374      7.68649      8.41925        -0.970340     -0.376678      0.467884
Pb      11.49442      7.71771     12.70108        -0.028392     -0.856325      0.477065
Pb      11.41701     11.51429      4.28840         0.199152     -0.020678     -0.215571
Pb      11.33720     11.19989      0.11807        -0.127452      0.545827     -0.129320
Pb      11.40712     11.30370      8.44470         0.192514      0.312515     -0.122308
Pb      11.49564     11.36258     12.91960         0.351889      0.516108     -0.335847
Ti       1.91206      1.83043      2.28954        -0.728265      0.122936     -0.987528
Ti       1.77396      1.86395     14.90028         0.430676      0.146542      0.887044
Ti       1.86540     13.22116      2.25238         0.371069     -0.377556     -1.259593
Ti       1.77727     13.31907     14.96022         0.176650      0.810536      1.079150
Ti      13.22382      1.90406      2.19774         0.190946     -0.722668      0.908244
Ti      13.30442      1.94681     15.04960        -1.275827     -1.438541     -1.250977
Ti      13.20176     13.27012      2.13031         0.272591     -0.159712      0.055835
Ti      13.26004     13.38311     15.03611        -0.490239     -0.192235     -0.866978
Ti       1.89457      1.91471      6.26650        -0.358207     -0.895063      0.685238
Ti       2.01831     13.27175      6.40529        -1.418438      0.025425     -0.139815
Ti      13.23140      1.81113      6.47201        -0.026609      0.776444     -0.172795
Ti      13.34035     13.27132      6.62800         0.567115      0.815019     -1.934959
Ti       1.84197      1.95556     10.80995        -0.662140     -0.156068     -0.610048
Ti       1.97179     13.35959     10.60131        -0.148052     -0.288219     -1.404868
Ti      13.25565      1.93277     10.66195         0.805414     -0.393560      0.259295
Ti      13.27800     13.29618     10.59314         0.196974      0.312252      0.764415
Ti       1.91049      5.63283      2.28030        -1.294347      0.522128     -1.355442
Ti       1.74626      5.80399     14.90002         1.328761     -1.653803     -0.117462
Ti      13.24113      5.62300      2.34631        -0.017799     -0.516227     -0.359202
Ti      13.28929      5.72672     15.00590        -0.974025      0.833153     -0.777060
Ti       1.87796      5.63310      6.45056        -0.115777      0.892851     -0.376705
Ti      13.22262      5.72596      6.56409         0.281313     -1.306608     -1.556000
Ti       1.84210      5.73942     10.87750        -0.430003     -0.364314     -0.853484
Ti      13.29597      5.73187     10.66558         0.335272     -0.311477      0.955462
Ti       1.96304      9.53118      2.21304        -0.211860     -1.159217     -0.750535
Ti       1.79806      9.57416     14.90902         1.235378     -1.004985     -0.433486
Ti      13.30807      9.42730      2.25874        -0.186489      0.360276     -0.286767
Ti      13.33116      9.49539     15.02976        -0.562663      0.218551     -0.540322
Ti       1.97018      9.40746      6.38998         0.564710      0.418135     -0.424104
Ti      13.38565      9.49937      6.45766        -1.080872     -0.070883     -0.629783
Ti       1.91702      9.56424     10.76966        -0.290587     -0.141638     -0.020124
Ti      13.23483      9.53299     10.67479         2.521234      0.359985     -0.479052
Ti       5.70030      1.94179      2.22833        -0.191611     -0.587227     -0.087559
Ti       5.62387      1.98398     14.90119         0.636412     -0.809457     -0.571633
Ti       5.69866     13.33770      2.03917        -0.534796     -0.646172      0.211244
Ti       5.65740     13.32845     14.90012         0.154172     -0.310485      0.381218
Ti       5.73507      1.92391      6.52176        -1.271013      0.167870     -0.327910
Ti       5.78814     13.26739      6.60072         0.010335     -0.261737     -0.850400
Ti       5.65967      1.83662     10.79023        -0.523763      1.347870     -0.415000
Ti       5.81276     13.27520     10.63576        -0.195166     -0.354358     -0.413151
Ti       5.67064      5.66708      2.09985         0.195395      0.341188      2.984149
Ti       5.59549      5.75091     14.84954         0.112759     -0.026063     -0.480022
Ti       5.62438      5.74534      6.51717         0.411539     -1.465254      0.492488
Ti       5.60477      5.73939     10.76519         0.603616     -0.705634     -0.165411
Ti       5.73725      9.51021      2.12551        -1.116573     -0.501638     -1.001040
Ti       5.70370      9.48353     15.02071        -0.413887     -0.184680     -0.449528
Ti       5.71928      9.38624      6.54379        -0.490319      1.499347      0.079539
Ti       5.70343      9.47626     10.83404         0.404943      0.817930     -1.111853
Ti       9.42578      1.84962      2.20570        -0.287288      1.543984      0.419013
Ti       9.46696      1.89633     14.96376         0.458733      0.062859     -0.763147
Ti       9.42694     13.36418      2.19034         0.502307     -0.993268     -0.899137
Ti       9.48588     13.27809     14.97104        -0.081652      0.324446     -0.013053
Ti       9.42763      1.84354      6.63143         0.613726      0.974623     -0.809267
Ti       9.53680     13.30086      6.62541         0.341496      0.890278     -1.006984
Ti       9.53547      1.76728     10.71784        -0.798975      1.450522     -0.218642
Ti       9.63878     13.20619     10.66415        -1.297961      0.782918      1.085283
Ti       9.38955      5.70224      2.31502         1.840615     -0.623145      0.312693
Ti       9.39635      5.69985     14.84020         1.340546     -0.331080      0.213013
Ti       9.43103      5.71801      6.63295        -0.475387     -1.251221     -0.269427
Ti       9.47908      5.70320     10.71712        -0.422135     -0.646826     -0.481729
Ti       9.48148      9.52711      2.42983         0.319247     -0.963171     -1.673856
Ti       9.50259      9.53115     15.09185        -0.328611     -0.889630     -0.191874
Ti       9.46129      9.48215      6.51011         0.197574     -0.081763     -0.472338
Ti       9.57184      9.50203     10.73319        -1.808663     -0.546328      0.665020
O       1.95935      1.89616      0.40417        -0.052160     -0.278028      1.103982
O       1.72224      1.89248     13.14265         0.312088     -0.307639     -0.063884
O       1.88602     13.16341      0.38735        -0.086371      0.216337      1.071188
O       1.75262     13.38600     13.24056         0.155469     -0.096279     -1.990408
O      13.15931      1.98384      0.41104         0.304651     -0.065626      0.636805
O      13.27917      1.87576     13.22430        -0.055223      0.201791      0.653422
O      13.26455     13.28397      0.32521        -0.178510     -0.410613      0.729456
O      13.25631     13.43409     13.18104         0.112768     -0.306408      0.726647
O       1.83616      1.93414      4.52668         0.328548      0.126746     -0.757842
O       1.95621     13.34763      4.61811        -0.498699     -0.611437     -0.459747
O      13.29708      1.84256      4.70086        -0.365576     -0.113703     -0.333540
O      13.38603     13.36887      4.73923        -0.518052     -0.891126      0.640118
O       1.74840      2.07370      8.99402         0.490710     -0.256121      0.139097
O       1.90786     13.26258      8.79432         0.199070      0.285361      1.086128
O      13.15987      1.94603      8.89738         0.461861     -0.073942     -0.641742
O      13.31764     13.21409      8.83056        -0.382193      0.108120     -0.311740
O       1.73246      5.80158      0.44137         0.843177     -0.587765      0.318738
O       1.83832      5.76758     13.08297        -0.242993     -0.236478      0.742049
O      13.25600      5.63159      0.51655        -0.299683     -0.286418      0.010328
O      13.38692      5.74552     13.23075        -0.280131     -0.009364      0.109913
O       1.89848      5.70079      4.61827        -0.092970      0.026299      0.443350
O      13.20689      5.69504      4.68867         0.176837      0.398142      0.169316
O       1.84130      5.66249      8.98904        -0.038955      0.036480      0.382399
O      13.25080      5.70886      8.90997         0.148748      0.283747     -1.230427
O       1.92330      9.51856      0.37765        -0.239106      0.079828     -0.095637
O       1.91582      9.63990     13.08472        -0.373480     -0.623958      0.820457
O      13.25430      9.46471      0.33619        -0.101908      0.258957      1.306137
O      13.21396      9.42304     13.18306         0.191038      0.289436      0.619854
O       2.00630      9.41168      4.60273        -0.645516     -0.143795      0.822541
O      13.27219      9.44600      4.65250         0.541425      0.010900      0.266463
O       1.96237      9.46642      8.96639        -0.380310     -0.051100      0.096149
O      13.25832      9.57395      8.80618         0.031871     -0.534706      1.469401
O       5.63291      1.96578      0.46811         0.232436      0.091928     -1.007010
O       5.71477      1.80240     13.09504        -0.178840      0.573896      0.869435
O       5.63193     13.37241      0.28921        -0.001278     -0.282071     -0.172138
O       5.85710     13.28812     13.11009        -0.551219     -0.002515     -0.092233
O       5.67297      1.78144      4.74025         0.096396      0.584912     -0.381720
O       5.75293     13.30422      4.76976        -0.044652     -0.141826     -0.296169
O       5.56613      1.83745      8.97830         0.475353      0.015010      0.093789
O       5.64871     13.31377      8.81265         0.558166     -0.083753      0.710731
O       5.64364      5.72420      0.42843         0.182547     -0.208843     -2.425074
O       5.72954      5.73514     13.02970        -0.385235      0.197007      0.840260
O       5.48604      5.69177      4.69955         0.858659      0.051573      0.157155
O       5.65296      5.72812      8.91805        -0.129255      0.063087      0.445557
O       5.64010      9.43536      0.35077         0.252756      0.211112      0.078290
O       5.65189      9.54363     13.21280        -0.049985     -0.147341     -0.329582
O       5.80276      9.44433      4.78124        -0.244644     -0.023804     -1.044665
O       5.79866      9.58592      9.02024        -0.538637     -0.370815     -0.118380
O       9.42286      1.84137      0.41575        -0.248554     -0.074860     -0.281153
O       9.53700      1.93593     13.14963        -0.268930      0.015072      0.458576
O       9.55841     13.48542      0.39702        -0.522188     -0.460197      0.317396
O       9.47575     13.16825     13.14508         0.120868     -0.007571      0.613342
O       9.33513      1.75834      4.78989         0.125749      0.400050      0.405072
O       9.50517     13.32690      4.78119         0.059385     -0.356966     -0.130311
O       9.57408      1.78876      8.93389        -0.309437     -0.048443      0.001427
O       9.63110     13.32501      8.94378        -0.047222      0.149701     -1.787967
O       9.44411      5.61263      0.56059         0.003420      0.298209     -1.314754
O       9.35768      5.65186     13.04160         0.187878      0.122569      1.084916
O       9.34763      5.54067      4.82102         0.428970      0.460749     -0.385636
O       9.39694      5.89968      8.88432         0.549769     -0.549708      0.455401
O       9.49271      9.51312      0.54925         0.440179      0.123270      0.267508
O       9.63215      9.66721     13.31163        -0.380396     -0.585617     -0.818044
O       9.30426      9.55822      4.73771         0.396733      0.129959     -0.641261
O       9.46528      9.36852      8.99231         0.266593      0.123563     -0.805152
O       3.80214      1.82833      2.46056        -0.375439      0.457857      0.715451
O       3.78264      2.07816     15.15902        -0.723843     -0.425309      0.286855
O       3.80570     13.25439      2.49960        -0.039622     -0.154285      0.035839
O       3.69511     13.23391     15.17045         0.520513     -0.214418      0.046721
O      15.16322      1.90287      2.59657        -0.710606     -0.146897     -0.589513
O      15.13727      1.73069     15.46536         0.082731      0.501678     -0.442771
O      15.12889     13.10475      2.50976         0.097079      0.242139     -0.005740
O      15.11874     13.35905     15.34034         0.550455      0.663352      0.377648
O       3.73213      1.90641      6.72518         0.355783      0.495730     -0.054004
O       3.81872     13.42298      6.65079         0.580940     -0.677678      0.595597
O       0.03230      1.89927      6.71823        -0.319493      0.312747      0.236028
O       0.03209     13.28679      6.91245         0.093416      0.096598     -0.354145
O       3.74158      2.01339     11.15632         0.403494     -0.187616      0.204800
O       3.84979     13.19010     10.89567        -0.145110      0.525105      0.757135
O      15.12984      1.82144     11.10368        -0.223883     -0.324059     -0.069729
O      15.14671     13.34460     10.93789         0.774735      0.238109      0.299401
O       3.76506      5.67304      2.52091         0.965218      0.029941     -0.157861
O       3.72147      5.63893     15.20921         0.089716     -0.028871      0.148777
O      15.18783      5.59995      2.52212        -1.204270      0.137227      0.819475
O      15.13689      5.76781     15.44734        -0.091440     -0.039706     -0.233299
O       3.76985      5.71089      6.80623        -0.868430      0.008946      0.303237
O      15.13212      5.69227      6.70092         0.668961      0.213369      0.318908
O       3.72329      5.40099     10.94232         0.407951      0.424646      0.537539
O      15.13255      5.66523     11.05072         0.348704      0.671986      0.191596
O       3.75238      9.44540      2.51123         2.029529      0.033941      0.315990
O       3.72414      9.41412     15.25624        -0.441738      0.528951     -0.054953
O       0.03809      9.43700      2.42982        -2.036740      0.279789      0.646748
O      15.18452      9.20730     15.26855         0.078863      0.676944      0.034074
O       3.79573      9.37226      6.82464        -0.255857      0.288017      0.179269
O       0.05683      9.48900      6.76873        -0.363592     -0.443095      0.014221
O       3.79961      9.64899     11.12165        -0.157234      0.109627      0.239534
O      15.17930      9.55209     11.07742        -0.293449     -0.324123     -0.092828
O       7.52492      1.84808      2.64052         0.137570     -0.183182     -0.191161
O       7.51964      1.83301     15.30769         0.061302      0.065069      0.266454
O       7.53308     13.22822      2.40094         0.297440      0.116466      0.321677
O       7.50835     13.34619     15.30675         1.092263      0.050572      0.190570
O       7.51672      1.97677      6.91900         0.661513     -0.689920      0.489869
O       7.68144     13.18524      6.77535        -1.414268      0.359408      0.676560
O       7.58369      1.74298     11.01969         0.491019     -0.015178      0.013868
O       7.70112     13.42704     10.94523        -0.823201      0.073222      0.169670
O       7.60189      5.69226      2.62350        -2.546258      0.266983      0.061097
O       7.57815      5.83402     15.30151        -0.273859     -0.339134     -0.150008
O       7.51019      5.75251      6.84943         0.081435     -0.172805      0.117612
O       7.54320      5.85702     10.88807         0.195569      0.014676      0.564508
O       7.55388      9.51406      2.50530         0.412063     -0.140502      0.514781
O       7.57169      9.40269     15.34381         0.655460      0.054782      0.195465
O       7.56457      9.57403      6.90704         0.838296     -0.516002     -0.147912
O       7.56479      9.46865     11.17374         1.711653     -0.432432      0.247047
O      11.21863      1.87502      2.66218         1.458348     -0.457534     -0.234839
O      11.33768      1.94354     15.38203        -0.117078      0.421821     -0.083910
O      11.32371     13.26363      2.56297         0.464063      0.137472      0.181452
O      11.35712     13.26987     15.25190        -0.439035     -0.632457      0.187857
O      11.34064      1.85657      6.86410         0.319930      0.083378     -0.247308
O      11.45372     13.36612      6.77445        -0.323679     -0.424297      0.519375
O      11.36969      1.99857     11.09549         0.501086     -0.031376      0.154106
O      11.43623     13.32704     11.03065         0.277425     -0.722533      0.352328
O      11.30720      5.57272      2.74357         0.396236      0.233540     -0.184350
O      11.36333      5.58240     15.29686        -0.301585      0.237956     -0.108932
O      11.36180      5.57861      6.82127        -0.433418      0.920717      0.207206
O      11.39662      5.62307     11.03947         0.068079      0.288465      0.125027
O      11.39071      9.38078      2.68365         0.026747      0.437472     -0.171085
O      11.40025      9.51835     15.36634         0.195528      0.613698      0.423655
O      11.38298      9.50468      6.79579        -0.140455      0.163754      0.054208
O      11.43676      9.54084     11.14300        -0.955077     -0.071476     -0.244209
O       1.84411      3.75936      2.46607         0.596921     -0.200093      0.362617
O       1.71995      3.72553     15.27496        -0.037049      0.953812      0.077302
O       1.81547     15.09566      2.61681         0.317762      0.353751     -0.928625
O       1.87195      0.01229     15.40818         0.380793     -0.130505     -0.151509
O      13.13285      3.67292      2.76783         0.569367      0.948974     -0.572970
O      13.40607      3.77585     15.33309        -0.496853      1.059680     -0.043856
O      13.26457     15.12689      2.48688        -0.104496      0.522046     -0.186905
O      13.11869      0.04072     15.43488         0.501341     -0.216291      0.101981
O       1.90419      3.78801      6.78574        -0.315792      0.244492     -0.244000
O       1.94820     15.18592      6.71273        -0.866881      1.145447      0.024452
O      13.20911      3.80239      6.73884         0.364772     -0.243775      0.454525
O      13.32836      0.02621      6.85221         0.118587     -0.929184      0.508512
O       1.68040      3.75111     11.24864         0.687288      1.005574      0.010204
O       1.97900      0.02147     11.05023        -0.143117     -0.717416     -0.006700
O      13.37625      3.79219     10.92665        -0.453567      0.577608      0.806074
O      13.12927      0.02209     10.95575         0.337771     -0.466102      0.059804
O       1.82806      7.60332      2.45983         0.121073     -0.973594      0.603206
O       1.88078      7.54408     15.27510         0.212898      1.106407     -0.073885
O      13.20198      7.47654      2.44494         0.321439      0.945386      0.585694
O      13.17900      7.62123     15.31705        -0.176141     -1.104195      0.313034
O       1.86129      7.52042      6.99988        -0.073088      0.371734     -0.844397
O      13.15393      7.59226      6.84560         0.919243      0.571780     -0.299257
O       1.97663      7.60988     11.16729        -0.081425      0.183123     -0.322290
O      13.30639      7.66295     11.07084        -0.398795     -0.297758     -0.188158
O       1.89499     11.34199      2.69943         0.017560      0.839936     -0.079618
O       1.72782     11.38406     15.18295        -0.197360      0.145637      0.500720
O      13.16393     11.31693      2.50552         0.210443      0.129713      0.012675
O      13.55428     11.42091     15.18545        -1.087517     -0.870381      0.314228
O       1.89431     11.39694      6.71383         0.285326     -1.154471      0.054107
O      13.33729     11.35170      6.87260        -0.236844      0.032002     -0.495150
O       1.84015     11.46629     10.97788        -0.048894      0.398874      0.423387
O      13.27865     11.42925     11.11875        -0.142481     -0.290422     -0.201301
O       5.68166      3.83372      2.64900         0.096581     -0.270513     -0.430961
O       5.78268      3.89000     15.12223         0.099992     -0.926999      0.457648
O       5.61022     15.18291      2.53924         0.886178     -0.295284     -0.582623
O       5.50328     15.15037     15.30387         0.250571      1.357644     -0.108052
O       5.68032      3.79202      6.91345        -0.348270      0.482853     -0.351060
O       5.65945      0.00031      6.91725         0.995297      0.189099     -0.363020
O       5.84529      3.77392     11.03887        -0.121344      0.065574      0.130239
O       5.65894      0.01410     11.24252        -0.244632     -1.411780     -0.834090
O       5.67659      7.62969      2.60873         0.025368     -1.268539     -0.358570
O       5.61476      7.63073     15.26464        -0.096361     -1.631812      0.100123
O       5.66174      7.59110      6.89586         0.136847     -0.603134      0.026392
O       5.50125      7.64959     11.06957        -0.176699     -1.276023      0.120798
O       5.64393     11.35777      2.44947         0.327596      0.810806      0.078282
O       5.78312     11.36670     15.25069        -0.562134      0.749186      0.332306
O       5.56703     11.35557      6.78698         0.353249      0.338595      0.182852
O       5.84760     11.43611     11.04933        -0.273264      0.705872      0.374795
O       9.30422      3.74558      2.53777         0.183137     -0.253534      0.469456
O       9.34624      3.82196     15.28382        -0.080844      0.341212      0.188317
O       9.37952     15.14520      2.68805         0.188871      0.542686     -0.355014
O       9.47087      0.00435     15.13978         0.053817     -0.418129      0.608193
O       9.44422      3.76572      6.95289        -0.167004      0.412302      0.180744
O       9.43929      0.01381      6.91813        -0.289337     -0.958441      0.317197
O       9.41955      3.76203     11.00615        -0.210869      0.552364      0.023115
O       9.67751     15.14809     11.06256        -0.478018      0.178130      0.123168
O       9.50472      7.59537      2.59699        -0.375683     -0.305710      0.494043
O       9.53398      7.61362     15.47149         0.183908     -0.998879     -0.568307
O       9.47376      7.60259      6.73726         0.221453      0.490682      0.258623
O       9.52328      7.54841     11.20631         0.354082      1.483828     -0.093473
O       9.47205     11.41988      2.55096         0.194350      0.272262      0.452828
O       9.38558     11.35768     15.38186         0.067270      1.235917      0.524822
O       9.52379     11.43157      6.95378         0.379214     -1.199065     -0.169066
O       9.48196     11.37190     10.85975         0.039374     -0.869359      0.766982
