  # total energy = -7881.55103921 
CRSYTAL
PRIMVEC
    15.3600000000000000    0.0000000000000000    0.0000000000000000
     0.0000000000000000   15.3600000000000000    0.0000000000000000
     0.0000000000000000    0.0000000000000000    17.440000000000000
PRESSURE
-0.554148 -0.828851 -4.19888 -0.083283 -0.356345 0.011764
PRIMCOORD
320 1
Pb       3.87159      3.78354      4.29843        -0.090064      0.517388     -0.153569
Pb       3.75323      3.85745     17.42919        -0.056228     -0.257159     -0.356399
Pb       3.84429     15.31872      4.31298        -0.206494     -0.225761     -0.285111
Pb       3.84259     15.27044     17.42824        -0.071036      0.171243     -0.680952
Pb       0.01543      3.84071      4.30380        -0.560697     -0.021718     -0.367646
Pb      15.25966      3.76641     17.34997         0.128655      0.161192     -0.319574
Pb      15.34769      0.01555      4.39159        -0.398411     -0.244907     -0.608641
Pb       0.14486      0.03736     17.37510        -0.218532     -0.443707     -0.333547
Pb       3.90905      3.82134      8.68806        -0.294194     -0.158732     -0.325395
Pb       3.82656     15.34153      8.57195        -0.013311      0.078486      0.070608
Pb       0.13999      3.81742      8.73997        -0.339325     -0.416045     -0.409383
Pb       0.01853     15.28583      8.68858        -0.009365      0.175183     -0.309825
Pb       3.87227      3.88459     13.11651        -0.059908      0.279775     -0.692649
Pb       3.94909      0.10848     13.12775        -0.459187     -0.905110     -0.780951
Pb       0.01046      3.86675     12.98855        -0.969966     -0.059379      0.344126
Pb      15.33138     15.30782     13.10276        -0.335630      0.277919     -0.614024
Pb       3.78624      7.65133      4.36799         0.280745     -0.083055     -0.207219
Pb       3.89553      7.70118     17.38594         0.134691     -0.497854     -0.170789
Pb      15.22692      7.64807      4.33198         0.113051     -0.084978     -0.745255
Pb       0.08769      7.56027      0.02723        -0.724772      0.143206     -0.570864
Pb       3.72787      7.71976      8.60515         0.528364     -0.488217      0.431382
Pb      15.33907      7.73118      8.64125        -0.362946      0.034024     -0.118464
Pb       3.88939      7.71210     13.03738        -0.464144      0.058861     -0.506015
Pb      15.26127      7.67769     12.99303        -0.023949     -0.177556      0.078857
Pb       3.93368     11.45955      4.41364         0.077008     -0.072651     -0.491488
Pb       3.68461     11.58443      0.00874         0.028369     -0.034345     -0.571607
Pb      15.26760     11.37762      4.42673        -0.336919      0.232803     -0.676378
Pb       0.03241     11.46439      0.03369        -0.156549      0.003548     -0.135740
Pb       3.88073     11.44468      8.63619        -0.424800      0.215887      0.369414
Pb       0.01402     11.62433      8.67764        -0.222264     -0.241389     -0.087506
Pb       3.76942     11.52914     13.07471        -0.115815     -0.081237     -0.685922
Pb      15.27655     11.49483     12.96401        -0.125017     -0.108212     -0.082406
Pb       7.59536      3.90663      4.25057         0.622231     -0.262053     -0.090832
Pb       7.60033      3.77658      0.05805         0.436466      0.079733     -0.289682
Pb       7.58002     15.25113      4.40036         0.660997      0.072482     -1.088000
Pb       7.81641     15.29924      0.00323        -0.319450     -0.170745      0.289761
Pb       7.66588      3.86707      8.63336         0.302864     -0.284936     -0.042509
Pb       7.67064      0.11463      8.73442         0.184122     -0.506441     -0.310445
Pb       7.62696      3.74228     12.97815         0.348106      0.637740     -0.631917
Pb       7.63961     15.26080     13.10808         0.149926     -0.486233     -0.525625
Pb       7.70813      7.74928      4.39745        -0.125996     -0.192732     -0.399159
Pb       7.62518      7.69015     17.38799         0.022028     -0.345453     -0.168804
Pb       7.75264      7.53107      8.74374        -0.453790      0.581435     -0.532679
Pb       7.77311      7.71282     13.13304         0.263579     -0.301998     -0.972873
Pb       7.63695     11.48922      4.35937         0.419496      0.012245     -1.110909
Pb       7.67076     11.41890     17.36750        -0.051050      0.397467     -0.118345
Pb       7.67293     11.56192      8.73672         0.061789     -0.118353     -0.113322
Pb       7.55601     11.46517     13.02096         0.355013      0.294860     -0.082523
Pb      11.51351      3.92436      4.32755        -0.359908     -0.416726     -0.160718
Pb      11.46249      3.82563     17.42309        -0.223704     -0.404673     -0.696364
Pb      11.56749      0.01160      4.44224        -0.345701     -0.146179     -0.750848
Pb      11.54867      0.03120      0.03974        -0.461057     -0.230733     -0.323086
Pb      11.57843      3.67995      8.68463        -0.478956      0.208965     -0.439577
Pb      11.52817      0.10060      8.73155        -0.573937     -0.404580     -0.594333
Pb      11.49003      3.82713     12.94481         0.023069      0.071864     -0.010779
Pb      11.50135     15.35360     13.11923         0.278644      0.258680     -0.496166
Pb      11.51333      7.62329      4.42910        -0.151600      0.041938     -0.705194
Pb      11.48147      7.74314     17.35440         0.046909     -0.078889     -0.384253
Pb      11.52917      7.66880      8.68564        -0.085977      0.206360     -0.260880
Pb      11.57507      7.61022     13.15191        -0.284434      0.262953     -0.992181
Pb      11.45848     11.56972      4.30018        -0.338175     -0.140090     -0.425337
Pb      11.53237     11.50868     17.41427        -0.077526     -0.151718      0.171762
Pb      11.49912     11.52095      8.65736         0.030366     -0.163857     -0.531118
Pb      11.51010     11.57369     13.12597         0.245856     -0.765728     -0.767235
Ti       1.85225      1.87935      2.32269        -0.086926     -0.077960     -0.711046
Ti       1.92000      1.85243     15.26479        -0.621063      0.438937      1.079130
Ti       1.89583     13.33576      2.44012        -0.396730      0.495393     -0.882033
Ti       1.84073     13.37873     15.19919         0.544949     -0.184602      0.673728
Ti      13.34930      1.84778      2.25131        -0.517320      0.102985      1.123740
Ti      13.34146      1.83368     15.41408        -0.139645      0.635245     -1.537107
Ti      13.49795     13.36851      2.28252        -0.972759      0.032844      0.327351
Ti      13.46310     13.37910     15.42398        -0.314955      0.247602     -0.679950
Ti       1.83715      1.90318      6.52854         0.763804     -0.558052      1.768935
Ti       1.92034     13.37655      6.57343         0.142371      0.656676     -0.325596
Ti      13.42106      1.87340      6.62618        -0.521422      0.481103     -0.771248
Ti      13.38797     13.40609      6.60637        -0.132688     -0.296215      0.780624
Ti       1.89902      1.95825     11.05785        -0.357390     -1.329186     -0.341506
Ti       1.83368     13.41879     11.03526         0.705941      0.117445      1.789122
Ti      13.37502      1.90320     10.96391         0.082874     -0.040316      0.723284
Ti      13.34640     13.44445     10.90804         0.803283     -0.115502     -0.529751
Ti       1.87098      5.71639      2.28771         0.175959      0.908007      0.287164
Ti       1.84923      5.67120     15.37678        -0.104485      0.276425     -0.511174
Ti      13.39341      5.64810      2.17721        -0.044667      0.563859     -0.845972
Ti      13.36953      5.75685     15.36336         0.439758     -0.305989      0.271766
Ti       1.85688      5.70114      6.55919         1.328754     -0.283910     -0.973966
Ti      13.45057      5.72881      6.69420        -0.893391     -0.445378      0.405604
Ti       1.86468      5.72059     11.00091         0.117902      0.494883      0.790517
Ti      13.38521      5.75410     10.86126        -0.366373      0.555120      0.575120
Ti       1.86285      9.60808      2.39067         0.155208     -0.621442     -1.161886
Ti       1.91943      9.51054     15.43446        -0.640656      0.716530     -2.057416
Ti      13.29808      9.50509      2.28028         0.466052      0.422839     -0.512125
Ti      13.47969      9.58892     15.39129        -0.101637     -0.475849     -0.217038
Ti       1.82758      9.58119      6.65806         0.543633      0.353924      0.150861
Ti      13.36501      9.57645      6.57391        -0.339946      0.201856      1.158109
Ti       1.80578      9.54380     11.04057         0.555225      1.050382      0.239769
Ti      13.34496      9.56278     10.92444        -1.026696     -0.045548      0.429161
Ti       5.68418      1.82939      2.25779         0.380483      0.678360     -0.649100
Ti       5.69704      1.97736     15.35652         0.182311     -1.338733      1.141769
Ti       5.69514     13.42393      2.12521         1.290753     -0.582090      0.544154
Ti       5.71562     13.44317     15.38239         0.345332     -0.827574      0.224542
Ti       5.75669      1.90985      6.58722        -0.609570     -0.487786      0.118074
Ti       5.81855     13.40722      6.64973        -0.891571      0.189297      0.582868
Ti       5.72289      1.83531     11.03473         0.087143      0.585080     -0.885972
Ti       5.73212     13.43186     10.96811        -0.503227     -0.380559     -0.298775
Ti       5.76946      5.77713      2.38547         0.420349      1.032320     -1.688567
Ti       5.79543      5.66369     15.37452        -0.947765      1.135001     -0.065624
Ti       5.74219      5.74359      6.66248        -0.509165      0.123971     -0.498925
Ti       5.72572      5.71620     10.95857         0.230582      0.050819     -0.331622
Ti       5.69549      9.56742      2.22495         0.396612     -0.365253      1.256927
Ti       5.70219      9.58223     15.32762         0.429623      0.933814      0.373148
Ti       5.74006      9.53025      6.72858        -0.145766      0.231444     -1.127487
Ti       5.70119      9.60614     11.01280        -0.229941     -0.477346     -1.128788
Ti       9.53016      1.88316      2.37783         0.105955     -0.076710     -0.644915
Ti       9.45483      1.77873     15.28231         1.811656      1.005980      0.521085
Ti       9.61619     13.44187      2.20841        -0.571256     -0.449208      0.503540
Ti       9.57023     13.35999     15.44935        -0.007674      0.314470      0.236121
Ti       9.50419      1.88215      6.57929         0.644151     -0.044719      0.694792
Ti       9.59081     13.38682      6.62119         0.153601      1.006623     -0.168341
Ti       9.52642      1.85576     10.99733         0.793498      0.514712     -0.890421
Ti       9.65965     13.36598     10.99250        -1.375702      0.283503     -1.187685
Ti       9.60170      5.76260      2.22855        -0.523188     -0.032373      1.895974
Ti       9.56050      5.58405     15.28357         0.481309      0.315844      0.314889
Ti       9.64676      5.71723      6.58179        -0.285420     -0.122722     -0.162026
Ti       9.54080      5.78086     10.89573         0.183694     -0.728809      2.315805
Ti       9.49529      9.53811      2.32729         0.742149      1.198204     -0.561268
Ti       9.58534      9.57186     15.34975         0.225306     -0.493992     -0.986177
Ti       9.52546      9.56352      6.65896         0.921678     -0.026669     -1.116767
Ti       9.53334      9.62545     10.97232         1.395285     -1.228274      0.178954
O       1.74679      1.99666      0.50151         0.614487     -0.631441      1.902206
O       1.89088      1.91268     13.50517         0.189694      0.046926     -0.160915
O       1.81763     13.27399      0.60911         0.223280      0.471320      1.056252
O       1.78233     13.33641     13.39524         0.134164      0.262323      1.378123
O      13.15403      1.87999      0.45405         0.772279      0.025977      0.775631
O      13.33166      1.77014     13.54778        -0.097055     -0.007466      2.081909
O      13.51530     13.32882      0.50982        -0.011945      0.409313      0.443569
O      13.48232     13.44218     13.55757        -0.396248     -0.302755      1.870599
O       1.90367      1.88326      4.77694        -0.458051      0.158625     -0.541828
O       1.98073     13.47968      4.76155        -0.198254     -0.330033      1.070544
O      13.40675      1.89660      4.77290         0.059480     -0.030662      2.013510
O      13.27170     13.44151      4.85046         0.431222      0.002306      0.066896
O       1.81124      1.95418      9.26535         0.118260     -0.066495      1.117969
O       1.64350     13.37408      9.30552         0.518707      0.257935     -0.566538
O      13.32311      1.93392      9.16415         0.047358     -0.258984      0.534392
O      13.42890     13.47332      9.07794        -0.176227     -0.359861      1.305993
O       1.85731      5.77307      0.46153         0.379111     -0.229889      1.155598
O       1.67142      5.65340     13.57937         0.765792     -0.007699      0.841815
O      13.44997      5.65326      0.34685        -0.369516      0.220966      2.080973
O      13.37776      5.75693     13.58511         0.232142      0.195079      0.325569
O       1.91327      5.72953      4.72233        -0.450785     -0.246909      1.709175
O      13.29550      5.73862      4.92284         0.647906     -0.205611      0.070986
O       1.91660      5.63456      9.25668        -0.166203      0.249625     -0.391217
O      13.23826      5.89238      9.05422         0.946310     -0.582858      1.155382
O       1.95269      9.71316      0.55288        -0.418265     -0.519800      0.758243
O       1.94436      9.60379     13.57112        -0.044267     -0.216028      1.824080
O      13.50485      9.52595      0.47171        -0.576087     -0.097084      1.667145
O      13.42324      9.61655     13.55396        -0.159582     -0.029672      1.453761
O       1.82214      9.78118      4.90137         0.310739     -0.739540      0.252000
O      13.33625      9.60856      4.80456         0.190097     -0.400391      0.293750
O       1.81411      9.60518      9.26833         0.004138     -0.551366     -0.196060
O      13.29516      9.37109      9.12901         0.424371      0.481701      0.710462
O       5.52775      1.95827      0.46480         0.630444     -0.215439      0.617036
O       5.74019      1.90626     13.58081        -0.256157      0.212916      0.081009
O       5.74725     13.50256      0.33021        -0.574262     -0.144406      1.210578
O       5.82490     13.45171     13.56868        -0.084841     -0.208062      0.784214
O       5.86336      1.86213      4.79610        -0.778937      0.161165      0.623895
O       5.86977     13.43873      4.83449        -0.484460     -0.063095      1.088440
O       5.65467      1.80157      9.25628         0.187303     -0.044680      0.253465
O       5.64953     13.48763      9.13761         0.244106     -0.350241      1.444871
O       5.83678      5.97436      0.48761        -0.410495     -0.716810      1.699182
O       5.64329      5.56187     13.59725         0.573658      0.161551      0.227208
O       5.65126      5.73987      4.85087         0.578137     -0.137588      0.770264
O       5.72133      5.72603      9.11873         0.068773     -0.116462      1.171772
O       5.75400      9.35154      0.45787        -0.029771      0.642218      0.540262
O       5.64593      9.78104     13.53106         0.292046     -1.099152      0.723156
O       5.66233      9.58814      4.88981         0.052414      0.254520      1.323873
O       5.62674      9.55956      9.18088         0.245720      0.328915      1.259991
O       9.63578      1.84372      0.55217        -0.273230      0.286083      1.098948
O       9.65091      1.81856     13.49578        -0.626791     -0.256976      0.512788
O       9.57264     13.46827      0.38831         0.015310     -0.182703      0.855018
O       9.47053     13.57979     13.68300         0.370143     -0.643570     -0.164524
O       9.47994      1.88548      4.82517        -0.119996     -0.262721     -0.023903
O       9.62396     13.57597      4.81043        -0.541451     -0.426025      1.477320
O       9.63049      1.87901      9.13727        -0.480660      0.005611      1.853230
O       9.55852     13.30889      9.16429         0.376127     -0.322362      1.649584
O       9.57423      5.65559      0.51630        -0.026687      0.105731     -1.460889
O       9.60003      5.57778     13.50089        -0.446518      0.414822      1.221511
O       9.57662      5.82153      4.77689         0.272293     -0.026333      1.370591
O       9.30920      5.73345      9.14425         0.689781      0.058911      0.206902
O       9.67729      9.59503      0.52647        -0.640418     -0.151114      0.318304
O       9.58013      9.46284     13.51077        -0.218087      0.463018      1.672423
O       9.63019      9.58289      4.80121        -0.565994     -0.383762      1.617903
O       9.63312      9.54383      9.15223        -0.461609      0.453854      0.689197
O       3.78351      1.85805      2.62699        -0.733855      0.135762      0.395865
O       3.78193      1.90680     15.79914         0.584827      0.451450     -0.455285
O       3.78900     13.46987      2.65609         0.461418      0.122292     -0.020142
O       3.71664     13.38451     15.81634         0.334731     -0.059752     -0.514458
O      15.21102      1.91655      2.73994         0.958596      0.149765     -0.440512
O       0.02965      1.85025     15.70616        -1.100875     -0.278393      0.109584
O      15.30776     13.30995      2.78804         0.440501      0.275948      0.113672
O       0.02417     13.53079     15.73032        -0.210986     -0.121519     -0.096988
O       3.78542      1.84241      6.92117         0.006339      0.185377     -0.019215
O       3.77420     13.45351      7.04165         0.098497     -0.106803     -0.279372
O      15.26559      1.94749      7.07963         0.397796     -0.371626     -0.575395
O       0.05030     13.39876      7.07547        -0.975801     -0.237448     -0.567705
O       3.85715      1.91851     11.37805        -1.180708     -0.119471      0.479143
O       3.85011     13.41393     11.47516        -0.277992      0.169859     -0.532553
O      15.20030      1.82040     11.47864         1.038449      0.333063     -0.447485
O      15.17195     13.34075     11.40734         1.118535      0.367865     -0.235451
O       3.88873      5.87076      2.81717        -1.091106      0.013579     -0.874903
O       3.85735      5.74545     15.61401        -0.776107     -0.527967      0.607512
O       0.00997      5.66295      2.62559        -0.936510      0.032399      0.065474
O      15.29363      5.74414     15.80942         1.016760     -0.055503     -0.040870
O       3.78495      5.62091      6.87249        -0.134708     -0.016946      0.655218
O       0.01182      5.57851      7.02041        -0.389545      0.406080     -0.104485
O       3.75426      5.55903     11.42843         0.683304      0.654330      0.043122
O      15.29765      5.81411     11.35308         0.196026     -0.010647     -0.342278
O       3.77431      9.39559      2.69219         0.474448      0.484618     -0.071639
O       3.84708      9.56423     15.80089        -0.563375      0.251478     -0.103979
O      15.21036      9.56939      2.83700         0.703774      0.355991     -0.258108
O      15.32124      9.53991     15.76894         1.087055     -0.030050      0.063818
O       3.80140      9.50559      7.19735        -1.023309      0.539096     -0.778401
O      15.31693      9.58718      7.01943         0.009898     -0.328713     -0.037244
O       3.79946      9.59684     11.44963         0.440516     -0.260230     -0.148706
O      15.22953      9.62709     11.36648         0.916165     -0.409280     -0.122901
O       7.52980      1.95557      2.69019         0.587877      0.114472     -0.428664
O       7.64974      1.92766     15.81378        -1.093234     -0.458048     -0.344015
O       7.64265     13.39979      2.60789        -0.946282     -0.134632     -0.058024
O       7.64707     13.37784     15.88817        -0.012142      0.211816     -0.531392
O       7.62481      1.85504      7.02151        -0.191006      0.020675      0.175371
O       7.62294     13.35081      7.20366         0.042335      0.087911     -0.921777
O       7.62151      1.76851     11.40462         0.901575      0.329962     -0.056230
O       7.72331     13.36352     11.30343        -0.293001      0.109110      0.286098
O       7.67821      5.73902      2.72774        -0.648260     -0.126485     -0.064682
O       7.66299      5.63492     15.79938         0.491527      0.517107     -0.386868
O       7.64627      5.73489      6.99788        -0.197249      0.016557     -0.051387
O       7.58680      5.65471     11.50543         0.420461      0.381552     -0.595970
O       7.62323      9.68604      2.75282        -0.516529      0.296864     -0.248801
O       7.65960      9.64897     15.71231        -0.017975     -0.369736     -0.139686
O       7.61689      9.57006      7.03500         0.247537      0.131095     -0.043607
O       7.66269      9.64662     11.37009        -0.972478     -0.683717      0.151194
O      11.38607      1.96443      2.86774         0.975193     -0.618773     -0.753472
O      11.41538      1.86985     15.74549         0.622439     -0.295600     -0.093291
O      11.43845     13.43797      2.70389         0.678063      0.215752     -0.424548
O      11.52016     13.31846     15.75092         0.121998      0.261987     -0.270285
O      11.42072      1.84012      7.04576         0.870989     -0.144836     -0.230256
O      11.41545     13.36124      7.07249         0.711468      0.277180     -0.307771
O      11.48033      2.00080     11.37683        -0.227149     -0.238640     -0.178486
O      11.54657     13.26200     11.42953        -1.510545      0.404602      0.036208
O      11.46681      5.78456      2.71724         0.652455     -0.031402     -0.486501
O      11.48098      5.79853     15.68565        -0.861039     -0.529362      0.201869
O      11.50012      5.70974      7.02203        -0.579706      0.194376     -0.235241
O      11.50586      5.78958     11.39346        -0.869286     -0.234332     -0.649522
O      11.42060      9.52852      2.69167         1.148297     -0.221653     -0.090909
O      11.58575      9.68798     15.85841        -0.687128     -0.622227     -0.547974
O      11.50805      9.54210      7.01784        -0.321743     -0.016867     -0.147381
O      11.42903      9.50507     11.43643         0.322762      0.033016     -0.264872
O       1.88619      3.86536      2.76040         0.467642     -0.892146     -0.441039
O       1.81811      3.76720     15.87996         0.589191      0.597022     -0.697118
O       1.76877     15.32889      2.79275         0.277233      0.662855     -0.617095
O       1.93876     15.33969     15.73635        -0.000558     -0.328281     -0.248208
O      13.32413      3.80516      2.62620         0.121127      0.042068      0.015321
O      13.44270      3.81661     15.77295        -0.391021     -0.999889     -0.217565
O      13.36257     15.31659      2.74255         0.141792      0.394662     -0.536021
O      13.34635     15.29494     15.93618         0.452439      0.219265     -0.640250
O       1.88984      3.70485      7.12800        -0.101536      0.929125     -0.640498
O       1.77712     15.32524      7.05544         0.313119      0.296851     -0.396552
O      13.31952      3.75251      7.13383         0.290101      0.315068     -0.652983
O      13.38762     15.24162      7.00877         0.075332      1.536722     -0.117092
O       1.75465      3.83800     11.42853         0.197399     -0.586707     -0.170874
O       1.88130     15.34746     11.49341        -0.205614      0.019250     -0.462227
O      13.40137      3.93777     11.40815         0.158114     -1.056913     -0.630931
O      13.22952     15.34973     11.34894         0.204236     -0.426834     -0.355390
O       1.72179      7.73029      2.80674         0.376403     -0.942503     -0.381507
O       1.91018      7.63122     15.73052        -0.054819      0.113552      0.194605
O      13.42635      7.51237      2.70334         0.036207      1.013603     -0.125955
O      13.44453      7.63270     15.86907        -0.299325      0.741437     -0.573970
O       1.87248      7.57583      6.99991        -0.196996      0.467859     -0.061195
O      13.39590      7.64594      7.03096         0.538838     -0.064544     -0.464848
O       1.92106      7.70765     11.50606        -0.049019     -0.981032     -0.426664
O      13.36044      7.64849     11.46336         0.338327      0.060753     -0.323184
O       2.00997     11.46432      2.77582        -0.412458      0.047818      0.199883
O       1.81568     11.51438     15.79786         0.304549     -0.127345     -0.354175
O      13.37462     11.48862      2.73910        -0.273995     -0.398197     -0.312359
O      13.50967     11.50530     15.96792         0.076101      0.240465     -1.164340
O       1.88613     11.47151      7.09293         0.154653      0.184126     -0.227310
O      13.36843     11.50474      6.98004         0.284516     -0.468188      0.077658
O       1.94446     11.48894     11.41953        -0.582222      0.084341     -0.093411
O      13.27688     11.43948     11.31001         0.352526      0.321199     -0.084340
O       5.63340      3.89432      2.67274         0.171607     -0.535415     -0.166605
O       5.77392      3.81726     15.87564        -0.455958     -0.320279     -0.257948
O       5.65283     15.29863      2.53720         0.205786      0.332877      0.315000
O       5.60146     15.30080     15.61575         0.287778      1.223431      0.346833
O       5.77897      3.75822      7.21458        -0.374490      0.329934     -1.072118
O       5.66266     15.35203      7.06238         0.623782     -0.375054     -0.487271
O       5.78859      3.76936     11.31852        -0.195621      0.013517      0.317160
O       5.80278     15.26928     11.48054        -0.426897      0.464516      0.039415
O       5.94832      7.76466      2.82780        -0.981917     -0.770296     -0.430067
O       5.72007      7.68342     15.78759         0.488062     -0.257365     -0.864049
O       5.61643      7.66315      7.04924         0.371515     -0.964790     -0.112231
O       5.79010      7.60450     11.30225        -0.576606      0.480024      0.567038
O       5.59513     11.51758      2.68191         0.113600     -0.301719     -0.457375
O       5.76871     11.52663     15.86042        -0.486650     -0.748883     -0.440551
O       5.58856     11.48429      7.06979         0.597749      0.427372     -0.391956
O       5.74874     11.49504     11.46735        -0.052035      0.263976     -0.654062
O       9.56385      3.89000      2.73248        -0.255311     -0.720376     -0.167912
O       9.56014      3.69648     15.76672         0.023247      1.036893     -0.231164
O       9.42138     15.33235      2.64254         0.286211      0.401461     -0.040601
O       9.52623     15.29983     15.88023         0.254367      0.377986     -0.692222
O       9.56759      3.79235      6.95242        -0.261499      0.411977      0.047622
O       9.49675     15.31484      7.16775         0.012636     -0.224260     -0.725558
O       9.51906      3.81264     11.40635        -0.065862     -0.121418     -0.479729
O       9.66632     15.30516     11.30178         0.073451     -0.337742      0.099723
O       9.43913      7.70864      2.62806         0.159088     -0.905516      0.189219
O       9.60091      7.69244     15.63356        -0.155761     -0.535606      0.295077
O       9.54762      7.64990      7.09130        -0.068777     -0.216376     -0.457580
O       9.51137      7.60375     11.46934        -0.526400     -0.010490     -0.534714
O       9.57560     11.52139      2.76060        -0.119928      0.271228     -0.233373
O       9.62277     11.45183     15.86756        -0.371747      0.379747     -0.536859
O       9.59482     11.46918      6.90992        -0.468836     -0.014636      0.440169
O       9.53304     11.39393     11.51889         0.583882      1.842237     -0.353857
