  # total energy = -7879.15512631 
CRSYTAL
PRIMVEC
    15.3600000000000000    0.0000000000000000    0.0000000000000000
     0.0000000000000000   15.3600000000000000    0.0000000000000000
     0.0000000000000000    0.0000000000000000    17.440000000000000
PRESSURE
1.00849 1.46149 0.754098 -0.239826 -0.229019 -0.045619
PRIMCOORD
320 1
Pb       3.86391      3.81911      4.29043        -0.058830     -0.058297     -0.683668
Pb       3.76263      3.88253     17.41014        -0.000256     -0.527769     -0.358202
Pb       3.86511     15.34335      4.28554         0.263286     -0.299425     -0.321380
Pb       3.91912     15.30243      0.02525        -0.403003      0.413148     -0.743368
Pb      15.33178      3.88875      4.31664        -0.226298      0.027079     -0.363260
Pb      15.23175      3.73327     17.34971         0.041522      0.006257      0.174506
Pb      15.32153      0.01375      4.40266        -0.730874     -0.634669     -0.686481
Pb       0.16542      0.04869     17.37351        -0.412253     -0.211719      0.125147
Pb       3.96056      3.85797      8.63575        -0.529129     -0.417251     -0.114371
Pb       3.81274     15.30569      8.64115        -0.212715      0.062542     -0.214227
Pb       0.15430      3.75831      8.72129        -0.127353      0.462084     -0.240153
Pb       0.09383     15.28921      8.65208        -0.016473     -0.157180     -0.430175
Pb       3.91006      3.92556     13.11075        -0.637314     -0.494852     -0.177714
Pb       3.99973      0.06893     13.17753        -0.482119      0.183537     -0.104448
Pb      15.31011      3.87991     12.96313         0.428169      0.175593     -0.327215
Pb      15.32719     15.34399     13.06782        -0.271516     -0.341133     -0.327294
Pb       3.78021      7.64417      4.36170        -0.340691      0.427696     -0.466582
Pb       3.89459      7.74767     17.42254        -0.279490     -0.364773     -0.659541
Pb      15.19280      7.56247      4.32473         0.655095     -0.125289     -0.118305
Pb       0.16929      7.58866      0.01153        -0.810839      0.179049     -0.234992
Pb       3.75136      7.67255      8.63020        -0.269835      0.061689     -0.512969
Pb      15.31080      7.73831      8.63821         0.097381     -0.619645     -0.077350
Pb       3.87682      7.76307     13.07969        -0.127576     -0.247998     -0.575803
Pb      15.26214      7.72286     12.95916         0.323156     -0.391502     -0.039530
Pb       3.92078     11.43101      4.41269        -0.703680     -0.062748     -0.678751
Pb       3.67672     11.52569      0.02472         0.532724      0.075343     -0.336730
Pb      15.28666     11.36417      4.38730         0.582225      0.637624     -0.421674
Pb       0.07144     11.41862      0.07513        -0.461733      0.296983     -0.438940
Pb       3.82434     11.45458      8.65217         0.140310      0.239355     -0.351834
Pb       0.06557     11.64003      8.64881        -0.352367      0.185428     -0.421568
Pb       3.75157     11.56738     13.05442        -0.165829     -0.253446     -0.377337
Pb      15.18997     11.46788     12.95204         0.172367      0.095786      0.198218
Pb       7.57652      3.93995      4.23514         0.184299     -0.519478      0.167444
Pb       7.65375      3.80137      0.02429        -0.579550     -0.436104     -0.673011
Pb       7.55944     15.28247      4.33349         0.183979      0.144862     -0.411561
Pb       7.82782     15.26287      0.02363        -0.352588      0.598088     -0.589674
Pb       7.68273      3.85409      8.63927         0.049024     -0.822671     -0.243514
Pb       7.69713      0.10937      8.71860        -0.455048     -0.058476     -0.523023
Pb       7.57730      3.69810     12.99783        -0.412774      0.102510      0.139208
Pb       7.67621     15.16814     13.13327         0.239240      0.538929     -0.180621
Pb       7.65989      7.78287      4.39750         0.606484     -0.387299     -0.464682
Pb       7.67661      7.60429     17.38728         0.411458      0.219808     -0.655771
Pb       7.71112      7.54651      8.74716         0.052719      0.279218     -0.280191
Pb       7.78995      7.67398     13.13327        -0.360313      0.226881     -0.702278
Pb       7.63830     11.47978      4.32919         0.501941      0.413147     -0.186893
Pb       7.67063     11.43516     17.33845         0.183167     -0.097998      0.091452
Pb       7.71501     11.52269      8.79052        -0.156276     -0.099334     -1.029131
Pb       7.55172     11.50289     13.05421         0.900452     -0.641498     -0.549357
Pb      11.56256      3.92504      4.34779        -0.369509      0.073359     -0.433581
Pb      11.37753      3.79560     17.38883         0.405140      0.560264      0.332046
Pb      11.55626      0.08906      4.39589        -0.185955     -0.656732     -0.362842
Pb      11.61828      0.06418     17.40325        -0.221023     -0.716374      0.514468
Pb      11.64947      3.66643      8.67997        -0.503803      0.747755      0.132436
Pb      11.52175      0.07031      8.70219         0.073610     -0.584988     -0.142147
Pb      11.44142      3.86790     12.90339         0.525807     -0.107738     -0.037422
Pb      11.46178     15.33514     13.13429         0.272238     -0.112000     -0.380881
Pb      11.53641      7.65025      4.43822        -0.745498     -0.514328     -0.897231
Pb      11.44523      7.72748     17.33376         0.330090     -0.576376      0.270699
Pb      11.51382      7.64109      8.68371         0.097479     -0.470196     -0.145878
Pb      11.60118      7.64018     13.10732        -0.314212      0.122460     -0.509027
Pb      11.42314     11.55975      4.33975        -0.091796      0.423963     -0.418571
Pb      11.57545     11.53689     17.41448         0.002776      0.121019     -0.472752
Pb      11.42581     11.52763      8.71194         0.200626      0.031990     -0.299638
Pb      11.47097     11.58526     13.10729        -0.283692     -0.083341     -0.245592
Ti       1.77310      1.91104      2.40362         0.731183      0.277876     -2.055512
Ti       1.80493      1.92972     15.32101         1.194462     -0.199072      2.096548
Ti       1.86934     13.44499      2.41495        -0.122671     -1.258780      1.321285
Ti       1.85166     13.40477     15.30376         0.315299      1.041205     -0.590617
Ti      13.32854      1.89252      2.33505         0.380017     -0.423425     -0.510671
Ti      13.22431      1.89021     15.41815         1.492704     -0.103496     -1.771108
Ti      13.39418     13.36350      2.35677         0.105453      1.057931      0.355803
Ti      13.50028     13.41075     15.41772        -0.314075     -0.226299      1.099691
Ti       1.87666      1.81528      6.45702         0.235540      0.344500      2.293308
Ti       1.96604     13.37415      6.49834        -0.954606      0.345266      0.760099
Ti      13.42342      1.90743      6.63456         0.437430     -0.602601     -1.037021
Ti      13.29413     13.42331      6.66762         1.353668     -0.199643     -0.286294
Ti       1.81800      1.82838     11.09948         0.608234      1.384850     -0.252119
Ti       1.90687     13.45012     11.16059        -1.008258     -0.302226     -1.197184
Ti      13.35587      1.88273     11.01949         0.308381     -0.652413      1.353770
Ti      13.37751     13.40044     11.01167         0.321305      0.316765      0.611367
Ti       1.87297      5.75010      2.34049         0.116569     -0.459768      1.093258
Ti       1.80102      5.73311     15.39963         0.396015     -0.431235     -0.823535
Ti      13.33935      5.67990      2.14771        -0.668372     -0.130117     -1.071920
Ti      13.36245      5.76402     15.35648         0.234372      0.249764      0.457314
Ti       1.93695      5.58965      6.51741        -1.518526      1.258434      0.568579
Ti      13.39203      5.72142      6.72509         0.965677      0.378416     -0.022014
Ti       1.93697      5.77640     11.00955        -0.370887     -0.850010      1.349910
Ti      13.39749      5.76248     10.98255         0.004694     -0.536526     -1.527326
Ti       1.93049      9.56571      2.33406         0.383328     -0.006600      2.137462
Ti       1.90288      9.60991     15.37449        -0.106183     -0.224251      0.942859
Ti      13.42673      9.47156      2.40152        -0.063744      0.769958     -0.987038
Ti      13.52940      9.56559     15.39670        -0.722344     -0.046976      0.416135
Ti       1.83887      9.57810      6.69058         0.368532     -0.752132     -0.606719
Ti      13.35662      9.60350      6.63971         0.750326     -0.273615      1.049204
Ti       1.88818      9.64010     11.00066        -0.684495     -0.940506      1.100432
Ti      13.27835      9.54807     10.96446         1.296638      0.291870      0.508370
Ti       5.62537      1.90302      2.28032         1.209062     -0.337022     -0.597482
Ti       5.69045      1.91093     15.38659         0.026636      1.176524     -0.089457
Ti       5.67406     13.36027      2.18107         0.038266      0.527971     -0.825775
Ti       5.70187     13.34386     15.45816        -0.353257      1.004435      2.418634
Ti       5.62649      1.86797      6.57870         0.899257      0.157173      0.533179
Ti       5.72835     13.43750      6.71493         0.763274     -0.046428      0.967248
Ti       5.64289      1.83383     11.01468         0.162701     -0.043241      0.955053
Ti       5.73168     13.35605     10.99280        -0.920834      0.687177     -0.090205
Ti       5.74307      5.83640      2.23062        -0.412226     -1.709929      1.118353
Ti       5.69767      5.74186     15.38478         0.768944     -0.496721      0.587552
Ti       5.72283      5.75131      6.57772        -0.115542     -0.564440      1.037747
Ti       5.72475      5.69048     10.98661        -0.155276      0.575258      2.765597
Ti       5.79639      9.52266      2.30897        -0.544904      0.951481     -0.089917
Ti       5.75952      9.64385     15.33348         0.387354     -1.564179      0.641194
Ti       5.80896      9.59052      6.75268        -0.187394     -0.169800      0.758354
Ti       5.71833      9.54022     10.95988         0.956422      0.122051      0.453568
Ti       9.50328      1.95225      2.45585        -0.186497      0.085828     -0.327275
Ti       9.61249      1.91302     15.26884        -2.438599     -1.469977      0.295865
Ti       9.55024     13.52381      2.26708         0.394873     -0.659144      0.546951
Ti       9.60258     13.38361     15.44293         0.196294      0.276423      0.607550
Ti       9.55006      1.80675      6.67031        -0.989885      0.563058     -0.449613
Ti       9.54006     13.45941      6.68174        -0.473249     -0.757002     -0.743016
Ti       9.57547      1.87895     11.04881        -0.766557     -0.179224     -0.214562
Ti       9.53072     13.44241     10.94917         1.390236     -1.771958      0.323355
Ti       9.56180      5.76149      2.27671         0.281148      0.649670      0.756890
Ti       9.57631      5.67301     15.25615        -0.080939      0.711956     -0.150391
Ti       9.50340      5.66886      6.71849         0.912675      0.109965     -1.169563
Ti       9.48037      5.67091     11.06115         0.935983      1.779358     -0.399539
Ti       9.64827      9.68337      2.29731        -1.070704     -1.377341      1.517670
Ti       9.68971      9.52663     15.34917        -1.225512      1.165981     -0.590984
Ti       9.63112      9.54402      6.56388        -1.799728      1.008800     -0.455442
Ti       9.60402      9.54911     10.95449        -1.024410     -0.044599      3.175806
O       1.87594      1.89947      0.56539        -0.272597      0.112045      0.811331
O       1.76299      1.91967     13.63213        -0.275767     -0.148038     -2.221208
O       1.84253     13.37394      0.69106         0.064997     -0.339406     -1.548997
O       1.70849     13.46506     13.52030         0.494252     -0.326186     -0.151944
O      13.34261      1.88106      0.53722        -0.365649      0.062803     -0.354762
O      13.10479      1.76002     13.59604         0.642058      0.424592      1.049909
O      13.52460     13.46728      0.62464        -0.217747     -0.459617     -1.211773
O      13.50218     13.25757     13.72207        -0.019129      0.732577     -2.238041
O       1.62888      1.82691      4.76674         0.589820      0.046445     -2.218530
O       1.95819     13.28914      4.77047        -0.044168      0.413065     -0.630294
O      13.42839      1.94705      4.81173         0.000631     -0.191223      1.195293
O      13.25870     13.44206      4.92736        -0.132788      0.142971     -0.759966
O       1.92331      1.95267      9.33457        -0.172964     -0.289964     -0.479631
O       1.82294     13.41690      9.33866         0.084596     -0.097862     -0.047536
O      13.25848      1.83712      9.28850         0.155824      0.193737     -1.789518
O      13.33909     13.22925      9.27994         0.094299      0.289980     -1.353422
O       1.90639      5.75431      0.62881        -0.497140      0.169234     -2.387057
O       1.68749      5.68759     13.62808         0.368542      0.334557      0.369259
O      13.29570      5.63059      0.32256         0.240800      0.328752      1.314795
O      13.39269      6.00095     13.57986         0.031505     -0.976444     -0.552015
O       1.77938      5.58096      4.76921         0.371835      0.595439     -0.422643
O      13.32860      5.68711      4.91806        -0.113795      0.120743      0.138035
O       1.87419      5.66184      9.28997         0.306314     -0.294816     -1.642401
O      13.53469      5.65496      9.18673        -0.792614      0.293469     -0.238037
O       1.85015      9.52997      0.60100         0.174444      0.113901     -1.785467
O       1.91770      9.54598     13.66347         0.124441      0.175910     -1.143389
O      13.53087      9.49256      0.65078        -0.197559      0.400858     -0.142623
O      13.40511      9.46636     13.66061         0.100498      0.182938     -1.413593
O       1.95667      9.55036      4.94226        -0.156799      0.106969     -0.304186
O      13.34892      9.34292      4.90843         0.003574      0.326948     -1.603825
O       1.89657      9.49421      9.26298         0.089381      0.563720     -0.791453
O      13.39488      9.62878      9.24704        -0.203721     -0.251159     -1.273736
O       5.87985      1.86169      0.49807        -0.829221      0.090730      0.127631
O       5.58469      2.10046     13.56194         0.570243     -0.856518      0.351244
O       5.59012     13.52032      0.35967         0.119103     -0.075525      0.460210
O       5.80016     13.27613     13.75818         0.036375      0.115419     -2.266627
O       5.50803      1.91650      4.83495         0.620659     -0.279593     -0.644019
O       5.71319     13.52546      5.00870        -0.017513     -0.395151     -1.855795
O       5.66477      1.59715      9.25943        -0.144043      0.868278      0.301027
O       5.71595     13.36829      9.25101        -0.101475      0.342683     -0.755072
O       5.79861      5.71196      0.49352         0.198628      0.591682     -0.597951
O       5.85669      5.68126     13.63997        -0.586696     -0.251414     -0.763990
O       5.91088      5.73767      4.86896        -0.894921      0.208040     -1.123005
O       5.70590      5.71300      9.30055        -0.084154     -0.230477     -2.556402
O       5.81954      9.53814      0.56978        -0.135777     -0.685408     -0.813239
O       5.73806      9.45171     13.59341        -0.185946      1.132881     -0.664697
O       5.72070      9.55663      5.00891        -0.188849     -0.027985     -1.410916
O       5.72606      9.72031      9.18637        -0.125912     -0.778345     -0.015861
O       9.72724      2.10171      0.70592        -0.596741     -0.548241     -0.435163
O       9.56799      1.64654     13.53774         0.209942      0.679679     -0.958099
O       9.64709     13.45008      0.50788        -0.346284     -0.050956     -0.916869
O       9.54024     13.41775     13.70706        -0.401202     -0.085744     -1.426905
O       9.36096      1.80682      4.91813         0.609732     -0.076200     -0.462919
O       9.45192     13.49326      4.89617         0.281343      0.008061     -0.249276
O       9.50468      1.76865      9.26255         0.548922      0.350763      0.383954
O       9.73566     13.12040      9.16327        -0.953966      1.083310      1.193631
O       9.69893      5.70600      0.53736        -0.546395     -0.056210     -1.482542
O       9.58785      5.75306     13.44420        -0.113508      0.138185      0.760370
O       9.58937      5.71842      4.95958        -0.238127     -0.265133      0.295367
O       9.48004      5.77308      9.28688        -0.300552     -0.039025     -1.572031
O       9.55516      9.56205      0.57661         0.092956      0.315933     -1.353549
O       9.66685      9.54839     13.57418        -0.143799     -0.225559      0.343652
O       9.51111      9.59989      4.74373         0.467098     -0.053372      0.961455
O       9.46829      9.65876      9.27088         0.196283     -0.054644     -2.881287
O       3.74919      1.83385      2.76525        -0.641176      0.316624     -0.024740
O       3.81546      2.09385     15.67988        -0.386986     -0.650628      0.387020
O       3.83463     13.42592      2.70011        -0.881693     -0.128013      0.258822
O       3.73800     13.38479     15.66901         0.791302      0.031241      0.466836
O      15.23232      2.01121      2.61709         0.643819     -0.255737      0.478058
O      15.24477      1.87146     15.82644         0.464021      0.507928     -0.383446
O      15.25279     13.26768      2.89450         0.377295      0.249844     -0.164429
O       0.03242     13.53883     15.75017        -0.349858     -0.246431      0.590845
O       3.78247      1.81722      6.95252        -0.527113      0.135817      0.454340
O       3.80833     13.39376      6.99127         0.261933      0.256333      0.516443
O       0.05776      1.77082      6.98062        -1.328583      0.469106      0.532169
O      15.28883     13.33536      6.91642         0.750535      0.358347      0.709368
O       3.70204      1.82042     11.51077         1.218257     -0.099642     -0.116188
O       3.76962     13.40440     11.39872         0.997090     -0.133938      0.612803
O      15.25158      1.91303     11.32932        -0.119283     -0.234525      0.581076
O      15.28870     13.49665     11.35004        -0.858277     -0.547750      0.576527
O       3.73157      5.80324      2.53960         1.637169     -0.258671      0.839211
O       3.83728      5.70673     15.89882        -0.257917      0.807743     -0.525848
O      15.16084      5.67560      2.62518         0.983664     -0.011085      0.223754
O      15.27731      5.66663     15.82271         0.565009      0.114813      0.063794
O       3.80488      5.55891      6.96949        -0.061287      0.651180      0.101972
O      15.31234      5.67333      6.94106         0.469587     -0.128489      0.264932
O       3.85768      5.65044     11.37558        -0.508751      0.030263      0.358347
O      15.26424      5.80179     11.22110         0.990698     -0.386969      1.214662
O       3.83135      9.58460      2.72042         0.110978     -0.545459      0.336756
O       3.78847      9.62968     15.81070         0.436358     -0.553951      0.126727
O       0.07342      9.56121      2.76542        -2.452416     -0.290870      0.255160
O       0.01529      9.59317     15.82928         0.623154     -0.128556      0.249352
O       3.71386      9.58134      7.09223         1.217102     -0.266917      0.564742
O      15.26778      9.57950      7.08071         0.660208      0.269127     -0.009035
O       3.80218      9.65978     11.45981         0.088868      0.235434      0.051751
O      15.34726      9.46818     11.37760        -0.107212      0.472166     -0.010446
O       7.53294      1.96537      2.67471         0.560577     -0.263703      0.336659
O       7.66115      1.88396     15.69272         0.680403      0.305384      0.246720
O       7.50623     13.45553      2.58563         0.644381     -0.180594      0.323989
O       7.63436     13.45647     15.84518        -0.411668     -0.093618      0.095365
O       7.63522      1.86638      7.14225        -0.105411     -0.067209      0.058121
O       7.69383     13.39413      6.98710        -1.048034      0.327890      0.892091
O       7.67055      1.96575     11.42253        -0.481934     -0.679862     -0.149119
O       7.57995     13.28603     11.38712         1.906916      0.612139      0.242835
O       7.64596      5.84532      2.73273        -1.119106     -0.417659     -0.404885
O       7.73311      5.77176     15.78777         0.426949     -0.388826      0.023026
O       7.55616      5.61198      7.04249         1.243677      0.058895      0.599306
O       7.60843      5.66147     11.28859        -0.558446     -0.064031      0.710575
O       7.66166      9.60494      2.74025        -0.599362     -0.320463      0.158134
O       7.70014      9.68257     15.73551        -1.022609     -0.353815      0.020744
O       7.65941      9.55565      6.92863         0.102775      0.020638      0.605048
O       7.65904      9.52725     11.37499        -1.171820      0.775547      0.255140
O      11.48027      1.77302      2.83199        -1.138845      0.815337     -0.006043
O      11.38821      1.82795     15.86342         0.802492      0.163523      0.110577
O      11.42270     13.54307      2.59915        -0.024064     -0.346391      0.708611
O      11.52886     13.34405     15.64660         0.033112     -0.026579      0.882325
O      11.48435      1.72406      6.99712         0.784428      0.853619      0.141384
O      11.47185     13.39437      7.04758        -0.115990     -0.102575      0.440724
O      11.45811      1.91956     11.48505        -0.835124     -0.246837     -0.311800
O      11.45733     13.42600     11.47842        -0.494333     -0.262475     -0.031793
O      11.41825      5.66311      2.64642         1.216517      0.102284      0.726203
O      11.50990      5.85534     15.72143        -1.102532     -0.111544     -0.333406
O      11.44133      5.84586      7.01901         0.115782     -0.419953      0.578436
O      11.42964      5.77232     11.17625         0.595405      0.012708      0.979125
O      11.42500      9.50524      2.66488         1.491582      0.181155      0.467232
O      11.52279      9.62644     15.75713         0.485146      0.110603      0.535651
O      11.44052      9.48080      7.04453         0.323060      0.038073     -0.026357
O      11.46355      9.40446     11.33846         0.287586      0.257124      0.033651
O       1.95762      3.82464      2.69697        -0.593002     -0.558759      0.388446
O       2.03111      3.84516     15.68165        -1.376669      0.188651      0.641656
O       1.77525     15.29693      2.56108        -0.251094      0.624028      1.033050
O       1.96554     15.34159     15.62641        -0.211815      0.588587      0.675996
O      13.24432      3.80903      2.56254         0.021169      0.092576      0.542962
O      13.29756      3.78691     15.61662         0.127927      0.195122      0.179215
O      13.38344     15.34380      2.68206         0.414219     -0.092100      0.678996
O      13.40100      0.00155     15.77434        -0.359747     -0.358267      0.252824
O       1.84979      3.73930      6.77271         0.088444     -0.265360      0.943095
O       1.94262     15.30712      6.89837        -0.361557     -0.576592      0.422328
O      13.40145      3.78934      7.06814        -0.343816     -0.662397      0.098007
O      13.44103      0.01469      7.02497        -0.076780     -0.416349      0.335641
O       1.82638      3.80663     11.50716        -0.239736      0.154072      0.002571
O       1.76406     15.30077     11.37447         0.211496      0.826364      0.599425
O      13.34189      3.78822     11.26923        -0.130671      0.639850      0.810085
O      13.27678     15.30477     11.32652         0.303329      0.262519      0.386805
O       1.86689      7.59857      2.79438        -0.313174      0.861387      0.129902
O       1.89527      7.66396     15.78553         0.077065     -0.150106      0.352150
O      13.37641      7.58707      2.60163        -0.207237      0.202694      0.709247
O      13.45421      7.70041     15.65880        -0.015216     -0.595438      0.965403
O       1.88267      7.61162      6.92772         0.187929     -0.435925      0.586873
O      13.48976      7.65545      7.07653        -0.664830     -0.391791      0.334895
O       2.02970      7.61540     11.34890        -0.152107      0.975840      0.364199
O      13.40565      7.64774     11.32027        -0.248683      0.198105      0.326353
O       1.83559     11.39594      2.85778         0.551934      0.691868     -0.473926
O       1.90354     11.57146     15.80968        -0.437689     -1.220907      0.220945
O      13.15366     11.48364      2.65799         0.683815     -0.843021      0.521568
O      13.57251     11.48315     15.67660        -0.365812      0.121564      1.280814
O       1.99915     11.53913      6.95790        -0.780510     -0.557739      0.614565
O      13.41547     11.44274      6.80240        -0.589665      0.362609      0.636637
O       1.75254     11.51737     11.54355         0.707556     -0.565486     -0.432412
O      13.36506     11.46652     11.38977        -0.083608     -0.357714      0.493472
O       5.61584      3.81727      2.67246         0.137828      0.941249      0.051107
O       5.79821      3.85440     15.84049         0.210558      0.104321      0.248490
O       5.59514     15.34639      2.62918         0.278182     -0.233195      0.293286
O       5.54333      0.08341     15.65131         0.422911     -1.609849      0.049458
O       5.66700      3.73293      6.96558         0.284939      0.710404      0.683522
O       5.79003      0.01217      6.99622        -0.367155     -0.768309      0.543525
O       5.67700      3.72805     11.46503         0.113762      0.333917     -0.682527
O       5.74950     15.31745     11.53973         0.040575     -0.210795      0.125044
O       5.58123      7.61713      2.72428         0.708343      1.012036     -0.004971
O       5.84845      7.65278     15.51261        -0.563391      0.629748      1.539325
O       5.72360      7.57802      7.05445        -0.316124      0.464334      0.284093
O       5.62242      7.67372     11.39938         0.264667     -0.188349     -0.288217
O       5.60046     11.47439      2.39477         0.488228      0.040923      1.084622
O       5.59111     11.45771     15.86530         0.748847      0.566219     -0.157829
O       5.73110     11.48563      7.02567        -0.224753      0.106892      0.334788
O       5.79870     11.52420     11.31226        -0.731965     -1.007648      0.845798
O       9.42989      3.87237      2.73217         0.470819     -0.736008      0.499746
O       9.71552      3.79492     15.50994        -0.250338      0.750564      0.365912
O       9.40737     15.34421      2.64518        -0.104517      0.635776      0.204809
O       9.55464     15.35939     15.68003         0.132378     -0.488029      0.893888
O       9.60664      3.66958      7.08026         0.007724      1.682789      0.332317
O       9.59997     15.31770      7.14794        -0.229120     -0.238413      0.294230
O       9.57337      3.82479     11.36029         0.089768     -1.129373      0.317678
O       9.51776     15.26182     11.33614        -0.216552      0.184173      0.041080
O       9.59640      7.59440      2.64014        -0.329793      1.243098      0.448586
O       9.54724      7.69357     15.75173         0.170040     -0.702652      0.061286
O       9.41632      7.66670      6.88121         0.191682     -0.587091      0.855072
O       9.37075      7.68037     11.33900         0.643775     -0.780965      0.154068
O       9.49144     11.57869      2.72976         0.347835     -0.243412     -0.001282
O       9.50577     11.47886     15.75999         0.581312      0.231014      0.435926
O       9.45706     11.51646      6.92846         0.896089     -1.210075      0.306202
O       9.72887     11.44283     11.51976        -0.936854      0.767283     -0.460229
