  # total energy = -7881.94302234 
CRSYTAL
PRIMVEC
    15.3600000000000000    0.0000000000000000    0.0000000000000000
     0.0000000000000000   15.3600000000000000    0.0000000000000000
     0.0000000000000000    0.0000000000000000    17.440000000000000
PRESSURE
0.644083 0.303373 -2.43484 0.224241 0.409272 -0.032205
PRIMCOORD
320 1
Pb       3.73836      3.84107      4.30233         1.021616     -0.350778      0.160762
Pb       3.82031      3.83793     17.36346         0.032856     -0.267273     -0.004958
Pb       3.81301      0.02517      4.26104         0.278474      0.041645     -0.250090
Pb       3.74405      0.05441      0.03719         0.508674      0.617303     -0.421729
Pb      15.33815      3.77035      4.36935        -0.268756      0.123854     -0.446035
Pb       0.01021      3.92617     17.38718         0.118228     -0.264518      0.477176
Pb      15.29980     15.27967      4.30150        -0.046202      0.221596     -0.340052
Pb      15.26326     15.28769      0.01342        -0.274803      0.302053     -0.073042
Pb       3.78916      3.74874      8.75978         0.197307      0.115312     -0.311302
Pb       3.87777     15.33232      8.68553         0.053596     -0.054002     -0.263386
Pb      15.35180      3.75812      8.70106        -0.121737      0.507600     -0.525392
Pb      15.32055      0.04231      8.66201         0.092213     -0.244883     -0.348223
Pb       3.65018      3.81560     13.02827         0.440913      0.053997      1.144380
Pb       3.74832     15.25322     13.06677         0.883889      0.350437      0.554683
Pb      15.32633      3.80532     13.04321         0.216293      0.300579      0.080545
Pb       0.04431      0.01843     13.01292        -0.631049     -0.131203      0.383002
Pb       3.82588      7.62799      4.27993         0.150600      0.272467      0.763070
Pb       3.76527      7.64394     17.36246         0.343089     -0.538454      0.443781
Pb       0.00001      7.70069      4.38744         0.278375     -0.130853     -0.385877
Pb      15.17273      7.70612     17.32900         0.638694      0.119629      0.221003
Pb       3.93512      7.62432      8.76696        -0.566435     -0.036013     -0.039356
Pb       0.06736      7.61046      8.71540        -0.097516     -0.055675     -0.278414
Pb       3.76878      7.64870     12.99675        -0.082697     -0.089794     -0.160774
Pb       0.04778      7.63811     13.04537        -0.035632      0.309049     -0.545069
Pb       3.75843     11.53211      4.22810         0.074914      0.249091      0.318003
Pb       3.93537     11.50432     17.42816        -0.169107      0.256527      0.164104
Pb      15.28509     11.56924      4.33038         0.862891     -0.484813     -0.356593
Pb      15.30640     11.55616     17.34853         0.212463     -0.702868      0.263313
Pb       3.78413     11.54736      8.62388         0.348599     -0.139973      0.558416
Pb      15.27416     11.39120      8.64821         0.436577      0.082489      0.111643
Pb       3.80914     11.53901     13.13608         0.064659     -0.163760     -0.490537
Pb      15.34029     11.52480     13.14391         0.075534     -0.212024     -0.111746
Pb       7.70529      3.75612      4.42862        -0.616291      0.370594     -0.598283
Pb       7.64315      3.90872     17.33621        -0.274038     -0.162129      0.002989
Pb       7.73251      0.09568      4.26066        -0.638266     -0.590408      0.553611
Pb       7.70269      0.03234     17.39066        -0.012841      0.090539     -0.089777
Pb       7.72615      3.67700      8.76409        -0.501603      0.857202      0.014104
Pb       7.62389     15.18910      8.63211         0.297731      0.203858     -0.045030
Pb       7.69979      3.82033     13.19735        -0.127683     -0.711188     -0.177748
Pb       7.56666      0.02392     13.11991         0.646490     -0.146434     -0.222400
Pb       7.63146      7.61502      4.30831         0.065145      0.168362     -0.149744
Pb       7.72616      7.66503     17.40603         0.133366      0.133316     -0.197059
Pb       7.56599      7.69747      8.67014         0.332869     -0.047593     -0.340481
Pb       7.52152      7.63497     12.99300         0.087509      0.250261      0.122507
Pb       7.67077     11.53458      4.33877         0.343379      0.091396     -0.155241
Pb       7.76639     11.50554      0.08157        -0.193265     -0.533038     -0.514801
Pb       7.49280     11.46142      8.63682         0.751331      0.064413     -0.439113
Pb       7.63428     11.39791     13.09871         0.828229      0.209023     -0.155921
Pb      11.43939      3.81280      4.36330         0.199644     -0.248148     -0.171946
Pb      11.63744      3.83662     17.36357        -0.456361      0.179170      0.201576
Pb      11.38879     15.33036      4.27896         0.228293      0.266409      0.160994
Pb      11.56126     15.33188     17.39218        -0.142105     -0.135896     -0.237156
Pb      11.42549      3.83695      8.72259         0.287753      0.178340     -0.152272
Pb      11.51696     15.23990      8.65307        -0.263094      0.099505     -0.150441
Pb      11.55937      3.80589     13.10005        -0.068736     -0.408626     -0.100033
Pb      11.59696     15.34740     12.91747        -0.373804     -0.157798      0.794192
Pb      11.41471      7.78606      4.29843         0.377223     -0.807453      0.471680
Pb      11.58858      7.59473     17.40304        -0.504621     -0.004792     -0.364645
Pb      11.41614      7.61322      8.72232         0.138026      0.315173      0.256460
Pb      11.50790      7.71961     12.91450        -0.210067      0.303143      0.444684
Pb      11.53216     11.46959      4.41504        -0.716317      0.020350     -0.519137
Pb      11.51975     11.48754     17.43526         0.097786     -0.067537     -0.387434
Pb      11.55912     11.52963      8.68705        -0.368423     -0.111050     -0.193910
Pb      11.48368     11.44729     12.99211        -0.431206      0.245148     -0.148452
Ti       1.89054      1.94222      2.25094         0.858068      0.054850     -1.168045
Ti       1.80233      1.92687     15.44666         1.498956      0.825658      0.573826
Ti       1.87481     13.45656      2.25863         0.745869     -0.201658      1.881329
Ti       2.00226     13.45544     15.39847        -0.644393      0.278835     -0.674022
Ti      13.45254      1.87447      2.29382        -0.588660     -0.425457     -1.044072
Ti      13.41426      1.90171     15.39472        -0.274500     -1.036667      0.195210
Ti      13.32536     13.36807      2.32970         0.930904      0.895792     -0.376072
Ti      13.46677     13.35668     15.36469        -0.591767      1.001213     -0.717444
Ti       1.83378      1.83960      6.61528         1.031011      0.445624      0.352104
Ti       1.89467     13.38392      6.66805         0.437379      0.304376     -0.194464
Ti      13.36090      1.89199      6.65730         0.277285      0.198249     -1.776179
Ti      13.50092     13.40648      6.54921        -1.121179      0.580650      0.358030
Ti       1.86254      1.88474     11.02495         0.574235      0.944713      0.241505
Ti       1.92459     13.46755     11.00304         0.539886     -0.137161      0.652544
Ti      13.42833      1.94026     10.97372        -0.160514      0.096432      1.490702
Ti      13.51051     13.38635     11.02263        -1.238906      0.355173      0.979623
Ti       1.92955      5.71884      2.33358        -0.609614      0.572575     -0.145127
Ti       1.84888      5.78985     15.38766         1.317837     -0.640157     -0.451349
Ti      13.38188      5.72259      2.39143         0.227707      0.092549     -0.999171
Ti      13.43564      5.67698     15.26346        -0.506659      1.499350      0.357339
Ti       1.95664      5.71710      6.58280        -0.415148     -0.036706      0.343677
Ti      13.43618      5.77638      6.69675         0.046516     -0.202629     -0.623104
Ti       1.92855      5.71187     11.02057        -0.453034      0.852702      0.980062
Ti      13.39072      5.73581     11.11702         1.355308      0.089911     -1.677433
Ti       2.01695      9.54028      2.28245        -0.833491      0.560583      1.511132
Ti       2.04344      9.59206     15.38205        -2.080033     -0.259518     -1.113432
Ti      13.52814      9.52385      2.31749         0.154156      0.174567     -0.573616
Ti      13.43826      9.57663     15.30715         0.351324     -0.639706     -0.489175
Ti       1.98512      9.54638      6.68087        -0.615514     -0.141959     -0.575709
Ti      13.43845      9.55802      6.64333         0.242967     -0.207738      0.731342
Ti       1.89778      9.72291     11.09071        -0.087876     -0.973442     -0.310086
Ti      13.39887      9.60331     11.00313         0.786250      0.378525      0.047591
Ti       5.72588      1.94913      2.27155        -0.379345      0.306506      0.409890
Ti       5.77271      1.87862     15.31272        -1.409487      0.538099      0.538799
Ti       5.75588     13.45143      2.25545        -1.028509      0.673901     -0.346806
Ti       5.81023     13.40260     15.42450        -0.393790      0.374348      1.529709
Ti       5.67845      1.95407      6.66628         0.691667     -0.227277     -0.489692
Ti       5.72161     13.44399      6.56132         0.497890      0.190389      0.563617
Ti       5.72095      1.91080     11.17505        -0.489293     -0.707931     -0.554302
Ti       5.84343     13.33182     11.10766        -0.829421      1.638417     -0.544103
Ti       5.71921      5.78282      2.31233         1.012176     -0.876842     -0.262243
Ti       5.75978      5.72723     15.31016        -0.852732      0.037000     -0.168014
Ti       5.63500      5.77110      6.77042         1.647157     -0.590788     -0.823255
Ti       5.79495      5.59541     11.10243        -1.747796      1.104796     -1.017432
Ti       5.74602      9.61401      2.29664         0.908321      0.024760      0.081405
Ti       5.77787      9.56091     15.40972         0.783041     -0.443131      0.017078
Ti       5.67165      9.65124      6.51146         1.037829     -0.280423      0.783760
Ti       5.74813      9.57077     10.97732        -1.278234     -0.117750     -0.597398
Ti       9.53855      1.94660      2.26862         0.949311      0.250517     -0.206349
Ti       9.59720      1.91651     15.40744         0.617320     -1.137927     -1.721878
Ti       9.54435     13.46479      2.22968         0.218057     -0.078842      0.970315
Ti       9.54357     13.38600     15.39413         1.789498      0.349431      0.049813
Ti       9.53940      1.85961      6.79129         0.372277     -0.253040     -0.973564
Ti       9.62807     13.31953      6.61933        -0.355927      1.143318     -1.096019
Ti       9.60556      1.91495     11.11061         0.339868     -0.860360     -0.976847
Ti       9.58567     13.42240     11.05000        -0.059889     -1.304642     -0.891229
Ti       9.57495      5.78823      2.29654         0.102444     -0.729279     -0.834194
Ti       9.57403      5.76296     15.25470         0.914342      0.781280      1.114030
Ti       9.55010      5.73913      6.71129        -0.316038      0.301140      1.139168
Ti       9.55582      5.70117     11.11028         0.216432      1.156136     -1.206563
Ti       9.64042      9.63745      2.37633        -0.487834      0.135598     -0.350496
Ti       9.63820      9.59857     15.36611         0.055940     -0.757336     -0.610409
Ti       9.62401      9.55894      6.58339        -0.571470      0.280367     -1.313678
Ti       9.50070      9.53562     10.92270         0.681498      1.253671      0.282856
O       1.99527      1.96094      0.44044        -0.260326     -0.210747      0.946004
O       1.82291      2.19616     13.70469        -0.212335     -0.974425     -0.269695
O       1.94048     13.56320      0.54529        -0.002965     -0.298418     -1.439112
O       1.92498     13.51250     13.58267         0.038473     -0.080032      1.655248
O      13.32047      1.77482      0.45586         0.149686      0.664684      1.225520
O      13.47333      2.03645     13.60747        -0.194951     -0.522093      1.005917
O      13.52801     13.32335      0.53577        -0.313925      0.054227      0.855553
O      13.58591     13.51054     13.55940        -0.270741     -0.321688      1.206852
O       1.79464      1.93831      4.86763         0.056840     -0.132358     -0.354208
O       1.95392     13.30274      4.87940        -0.396927      0.405487      1.043629
O      13.47715      1.89560      4.77426         0.180097      0.000247      1.840067
O      13.52169     13.50183      4.74441        -0.291201     -0.297295      0.777300
O       1.87243      1.84614      9.25735         0.140965      0.027996      0.150060
O       1.99603     13.47369      9.23631        -0.315460      0.050520      0.834486
O      13.46414      1.98466      9.25459        -0.056335     -0.141773     -1.431094
O      13.38993     13.35851      9.25249         0.157892      0.115704      0.619366
O       1.87532      5.71267      0.56277        -0.031816      0.263222      0.508097
O       1.89525      5.72308     13.57369        -0.195099      0.214014      1.473365
O      13.34067      5.83648      0.49804         0.110635     -0.519834      1.783045
O      13.45614      5.66682     13.50547        -0.146611      0.356295      0.287448
O       2.01612      5.76868      4.78363        -0.271884     -0.320006      1.067830
O      13.35843      5.79924      4.85925         0.336093     -0.357078      1.895509
O       2.07175      5.72155      9.28046        -0.579036     -0.139130     -0.492830
O      13.43578      5.72115      9.26654        -0.086127      0.061376      1.267097
O       1.96318      9.47242      0.57151         0.112950      0.128008     -0.955253
O       1.96135      9.51778     13.52342         0.225889      0.403688      1.912959
O      13.58495      9.60874      0.48358        -0.395240     -0.319902      1.922392
O      13.43361      9.48407     13.49581        -0.118723      0.657781      1.125071
O       2.03353      9.53816      4.91835        -0.364642      0.301922      0.651345
O      13.46209      9.49048      4.88884        -0.049325      0.297318     -0.025139
O       1.90256      9.76747      9.30809        -0.072945     -0.223239      0.277582
O      13.52797      9.76921      9.21221        -0.112432     -0.251734      0.266115
O       5.69475      1.99560      0.49970         0.468533     -0.191179      0.171752
O       5.88264      1.97265     13.51619        -0.072736     -0.369243      0.979710
O       5.59467     13.52797      0.45770         0.463483     -0.214092      0.655230
O       5.90013     13.32770     13.70406        -0.056299     -0.042019     -0.767296
O       5.83290      1.85557      4.88225         0.051928      0.441268      0.970211
O       5.80566     13.36158      4.83557        -0.472115      0.237940     -0.356336
O       5.49296      1.96106      9.38457         0.928388     -0.231964      0.650564
O       5.82300     13.57689      9.32320         0.011566     -0.738017      0.502992
O       5.76006      5.78273      0.53333         0.380538     -0.000344      0.522944
O       5.77334      5.75658     13.50512         0.339152     -0.186963      0.702415
O       5.66297      5.70805      4.98311         0.443872      0.196986      0.705257
O       5.51738      5.65860      9.28034         0.445518      0.167795      1.036833
O       5.92564      9.44688      0.51970        -0.544744      0.310689      0.580612
O       5.68480      9.64177     13.63721         0.210285     -0.068347      0.428083
O       5.73337      9.69203      4.76254         0.189151     -0.024750      0.111327
O       5.80705      9.71276      9.13948        -0.323772     -0.616000      1.825152
O       9.43044      1.92957      0.47817         0.366312      0.284164      0.843501
O       9.76829      1.88094     13.55349        -0.713406     -0.054790      1.214113
O       9.67021     13.51436      0.48904        -0.486730     -0.570641     -0.315637
O       9.50136     13.23054     13.64238         0.190043      0.396164      0.249356
O       9.64636      1.92446      4.95997        -0.578052      0.061362      0.791679
O       9.72126     13.48621      4.79027        -0.249501     -0.448205      1.412914
O       9.64659      1.90791      9.26721        -0.078604      0.205348      1.091164
O       9.53417     13.28804      9.21165         0.312954      0.445209      0.950166
O       9.67644      5.75659      0.49506        -0.204265     -0.337639      0.592498
O       9.56774      5.97965     13.50951        -0.226158     -0.475101     -0.309888
O       9.73967      5.81588      4.98876        -0.616044     -0.549755     -0.460237
O       9.64901      5.80486      9.30505         0.098556     -0.238672      1.153788
O       9.67272      9.57493      0.58037        -0.390572      0.348472      0.392263
O       9.67715      9.62474     13.53900        -0.135033     -0.324904      1.363503
O       9.75908      9.64202      4.63813        -0.488646     -0.014691      2.351590
O       9.53169      9.53850      9.16131        -0.195670      0.167441     -0.406100
O       3.88027      1.90250      2.73742        -0.275913      0.251904      0.046189
O       3.77771      2.01505     15.81422         0.677210     -0.264110     -0.501009
O       3.78468     13.48894      2.75593         0.511222      0.143828     -0.227525
O       3.90408     13.37363     15.67350        -0.833385     -0.072548      0.162488
O       0.04976      1.90379      2.45878        -0.680883      0.417813      0.737373
O      15.27109      1.81024     15.94054        -0.057347      0.465341     -0.606703
O      15.35957     13.40177      2.81026         0.525433      0.110770     -0.635364
O       0.02720     13.38628     15.85753         0.417665      0.322896     -0.434923
O       3.82886      1.90548      6.96500        -0.434777     -0.162015      0.253158
O       3.82639     13.40831      7.10125         0.314423      0.496569     -0.365053
O      15.34810      1.90134      7.06783        -0.562747     -0.379314      0.209160
O      15.28880     13.51932      7.04729         1.063835     -0.233126     -0.189356
O       3.81275      2.07090     11.50091         0.114295     -0.687532     -0.205687
O       3.87110     13.46508     11.53031        -0.000421     -0.178844     -0.242202
O      15.34750      1.87729     11.32980         0.156183     -0.050005      0.280834
O       0.01044     13.55253     11.49623         0.593366      0.050685     -0.808980
O       3.89022      5.78961      2.67293        -0.676076     -0.071039      0.102783
O       3.81416      5.74879     15.86447         0.282598      0.113977     -0.732797
O       0.01710      5.71769      2.76911        -0.215026      0.115039     -0.146866
O      15.35781      5.76468     15.77175        -0.639122     -0.137491     -0.201369
O       3.80525      5.79724      7.08787        -0.267631     -0.437900      0.118710
O       0.06212      5.79185      7.07087        -0.633918     -0.345175     -0.213212
O       3.74990      5.58587     11.48769         1.268751      0.124261     -0.152684
O      15.28269      5.74831     11.50661         0.812057      0.203375     -0.441730
O       3.88504      9.56143      2.79813         0.306147      0.100082     -0.900711
O       3.85097      9.55854     15.88995         0.687991     -0.076902     -0.338319
O       0.11575      9.55687      2.81207        -1.392801      0.078219     -0.359511
O       0.00407      9.55024     15.80104         0.469493      0.178469     -0.447509
O       3.82622      9.58647      6.99617         0.467525      0.265191      0.383809
O       0.00528      9.65853      7.03721         0.029083     -0.237086      0.048658
O       3.78297      9.60368     11.46535         1.088443      0.618740     -0.154503
O       0.03617      9.60825     11.46625         0.076818      0.383134     -0.019839
O       7.71134      1.96670      2.82865         0.171575      0.251000     -0.608439
O       7.64899      1.88700     15.77801         0.091258      0.118282     -0.216072
O       7.61955     13.42409      2.60865         0.349896     -0.077017     -0.130470
O       7.76579     13.46697     15.92550        -1.751781     -0.393860     -0.193614
O       7.64324      1.94518      7.30832         0.332844     -0.444352     -0.874265
O       7.69080     13.30981      6.86863        -0.368129      0.608715      0.695670
O       7.79760      1.85254     11.56883        -0.804723      0.008010     -0.423128
O       7.67788     13.42017     11.53172         0.208034      0.021044     -0.198004
O       7.68295      5.64137      2.72579        -0.328465      0.359333      0.239023
O       7.71076      5.73220     15.69621        -0.057880     -0.272336      0.005901
O       7.63261      5.80116      7.33643         0.271385     -0.176009     -1.070964
O       7.62905      5.93963     11.27433         0.491313     -0.570684      0.414915
O       7.75574      9.76697      2.78275        -1.063885     -0.624046     -0.410043
O       7.70670      9.61944     15.78900         0.077440     -0.283957     -0.166987
O       7.69394      9.61070      6.86339        -0.362753      0.145156      0.154452
O       7.57299      9.50607     11.33701         0.183058     -0.047076      0.206585
O      11.53319      1.81660      2.74622        -0.761258      0.393592     -0.514345
O      11.48983      1.79793     15.82675         0.398393      0.945059     -0.083969
O      11.45927     13.53006      2.61626         1.309936     -0.161060      0.024647
O      11.58437     13.28840     15.85394        -0.581953      0.216336     -0.483482
O      11.50363      1.93774      7.03606         0.161910      0.072158      0.304985
O      11.54716     13.48620      7.03285         0.039345     -0.472409     -0.010200
O      11.54232      1.92958     11.44138        -0.296004      0.508726     -0.057391
O      11.52886     13.41046     11.47346         0.442716     -0.658368     -0.330334
O      11.50997      5.85424      2.78354         0.247725     -0.512947     -0.439681
O      11.54008      5.82205     15.69168        -0.213292     -0.757441     -0.160398
O      11.43336      5.86851      7.31238         0.854409     -1.116068     -1.293848
O      11.52762      5.73630     11.55691        -0.723444      0.210852     -0.537024
O      11.52082      9.52512      2.72826         1.245484      0.502407     -0.520271
O      11.58521      9.65109     15.79761        -0.584141     -0.337025     -0.191503
O      11.52386      9.66533      6.97145         0.361983     -0.271961      0.196509
O      11.51480      9.71350     11.14854         0.161393     -0.376629      0.658259
O       2.03651      3.82468      2.74031        -0.623235      0.449211     -0.146338
O       1.84290      3.83763     15.96217        -0.275759      0.819943     -0.712572
O       2.06520      0.12975      2.63893        -0.906310     -1.908019      0.246951
O       2.01011      0.05814     15.71334        -0.415680     -1.606898      0.047521
O      13.44952      3.77472      2.65493        -0.253843      0.893611      0.073418
O      13.37457      3.83992     15.78529         0.309288     -0.520003     -0.135277
O      13.58117     15.33742      2.64187        -0.330937     -0.475383      0.036767
O      13.33829     15.27843     15.84397         0.769729      0.112336     -0.473902
O       1.87824      3.76568      7.04159         0.167473      0.698506     -0.144809
O       1.96702     15.29568      7.10797        -0.518262      0.377466     -0.281454
O      13.47308      3.82302      7.06398        -0.192682      0.425717     -0.119357
O      13.38794      0.01123      7.08977         0.305585     -0.045367     -0.057536
O       1.84439      3.82013     11.54835        -0.441451     -0.594023     -0.986515
O       2.06048      0.07306     11.60379        -0.988549     -0.649693     -1.036075
O      13.47244      3.85563     11.51931        -0.465097     -0.637937     -0.639206
O      13.39410      0.07233     11.46384         0.495692     -0.866537     -0.622505
O       2.02313      7.70516      2.85609        -0.565924     -1.029505     -0.874564
O       1.96891      7.66317     15.88017        -0.407899      0.124098     -0.682973
O      13.42755      7.64999      2.82338         0.613248      0.618289     -0.774305
O      13.45168      7.63346     15.67863        -0.026996      0.126311      0.123595
O       1.94949      7.62365      7.09760        -0.158794      0.489480      0.008573
O      13.51612      7.64681      7.17340        -0.387491      0.532464     -0.371797
O       2.01344      7.63697     11.37243        -0.590169      0.341685      0.074554
O      13.54869      7.76959     11.41792        -0.904713     -0.910590     -0.324756
O       2.03302     11.52239      2.68490        -0.644519     -0.035842     -0.536484
O       1.97696     11.47085     15.79404         0.051767      0.381654     -0.255237
O      13.50026     11.48283      2.77010        -0.564482     -0.403763     -0.264337
O      13.45898     11.45369     15.80363         0.509848      0.369207     -0.370043
O       2.01208     11.52504      7.21933        -1.009887     -0.029908     -1.042781
O      13.45607     11.56513      7.02659        -0.132249     -0.433648     -0.507282
O       1.93926     11.66806     11.65176        -0.299034     -0.784304     -0.989440
O      13.54618     11.54994     11.61911        -0.122230     -0.064839     -1.020959
O       5.72986      3.80229      2.78559         0.224862      0.845694     -0.144824
O       5.71817      3.83749     15.76402         0.761391      0.140417     -0.191323
O       5.76760      0.05356      2.71112         0.214308     -0.672587     -0.111720
O       5.65853      0.04002     15.76856         0.635629     -0.801154     -0.367614
O       5.80622      3.81155      7.13895        -0.437616      0.445897     -0.042381
O       5.84376      0.02289      7.07259        -0.492932     -0.721877     -0.000392
O       5.90158      3.77281     11.60723         0.155529      0.701505     -0.670595
O       5.80276     15.34177     11.60279        -0.306709      0.197016     -0.316441
O       5.80451      7.71686      2.81160         0.384373     -0.521109     -0.459743
O       5.88870      7.60524     15.64586        -0.519186      0.717813      0.340441
O       5.69156      7.74448      7.07427         0.249307     -0.367356      0.026632
O       5.57770      7.59359     11.47785         0.443487      0.849903     -0.678013
O       5.66777     11.55652      2.48627         0.120390     -0.445255      0.209805
O       5.76782     11.44564     15.96874         0.320624      0.684182     -0.537655
O       5.69183     11.54237      7.06954         0.112194     -0.288152     -0.342832
O       5.82187     11.49062     11.49527        -0.469011     -0.606157     -0.419758
O       9.68974      3.90285      2.80964        -0.227436     -1.365051     -0.368678
O       9.60457      3.77849     15.53212         0.087614      1.304029      0.563935
O       9.51639     15.35640      2.71772         0.148219      0.834173     -0.384421
O       9.62673     15.34058     15.83490        -0.288923     -0.377594     -0.317096
O       9.55348      3.82419      7.17149         0.154812      0.357266     -0.232477
O       9.58574     15.34594      7.00409        -0.117000     -0.373365      0.519812
O       9.51349      3.85989     11.52769         0.297107      0.029170     -0.353501
O       9.71993     15.22614     11.35879        -0.440547      1.617910      0.173970
O       9.46346      7.60492      2.63773         0.201072      1.503342      0.458975
O       9.67000      7.64841     15.89659        -0.396159      0.360677     -0.745687
O       9.59478      7.72219      6.92441        -0.026750     -0.226948      0.520999
O       9.58365      7.74125     11.35927         0.480508     -1.080843      0.323827
O       9.66464     11.63290      2.77223         0.115292     -0.869792     -0.568899
O       9.58575     11.43573     15.81987         0.000524      0.743084      0.336516
O       9.58493     11.49253      6.93918         0.547838     -0.373390      0.027983
O       9.54347     11.41740     11.45651        -0.164408      0.534064     -0.080485
