  # total energy = -7866.06082518 
CRSYTAL
PRIMVEC
    15.010000000000000    0.0000000000000000    0.0000000000000000
     0.0000000000000000   15.010000000000000    0.0000000000000000
     0.0000000000000000    0.0000000000000000    16.400000000000000
PRESSURE
15.2578 15.3714 5.2009 -0.212827 -0.063408 -0.004432
PRIMCOORD
320 1
Pb       3.90713      3.75234      4.37341         0.015176     -0.488125     -0.375117
Pb       3.80631      3.78134      0.17629        -0.006655      0.039644     -0.488483
Pb       3.64604      0.12200      4.13343         0.872845     -0.377352     -0.043457
Pb       3.67345      0.02148     16.38225         0.293277     -0.410458      0.221561
Pb       0.00528      3.67252      4.03856        -0.374736      0.163235      0.597659
Pb       0.06779      3.77623     16.37947        -0.368034      0.020938     -0.204865
Pb       0.08012     15.00815      4.10044        -0.259006     -0.143081      0.435970
Pb      14.91649      0.01760      0.01833        -0.018294      0.078042     -0.154498
Pb       3.83154      3.70978      8.31796         0.490379     -0.064446     -0.252946
Pb       3.77206     14.79665      8.32910         0.194158      0.742134     -0.098089
Pb       0.18375      3.79768      8.31786        -0.940705     -0.175158     -0.856398
Pb       0.07480     14.91163      8.27263        -0.185639      0.379958     -0.509325
Pb       3.71699      3.78456     12.24401         0.390399     -0.586200     -0.023696
Pb       3.75267     14.97723     12.49756        -0.331151      0.557902     -0.758392
Pb       0.08614      3.72297     12.30571        -0.171898     -0.043726      0.083027
Pb       0.02815      0.01721     12.32770        -0.105450     -0.086880     -0.012275
Pb       3.53457      7.48528      4.12589         0.607408      0.089985      0.263834
Pb       3.70396      7.36608      0.24096         0.293407      0.389548     -0.632748
Pb      14.83640      7.46436      4.10465         0.373448      0.363071      0.089451
Pb      14.90779      7.54715      0.02309         0.454190      0.407734      0.098749
Pb       3.71017      7.48471      8.12520         0.014176      0.070455      0.018469
Pb      14.96360      7.46904      8.26426         0.290553     -0.194110     -0.506358
Pb       3.74563      7.58219     12.31583         0.201617     -0.599734     -0.307102
Pb       0.07415      7.36932     12.36535        -0.038899      0.386415     -0.638411
Pb       3.52503     11.36359      4.15165         0.738242     -0.099723      0.139343
Pb       3.66907     11.15428     16.32294         0.259005      0.262242      0.088912
Pb      14.91692     11.30947      4.08159        -0.005135     -0.232154      0.661246
Pb      14.86631     11.32578      0.01214         0.542697     -0.719718     -0.069967
Pb       3.66047     11.14620      8.33560         0.666562      0.003474     -0.734269
Pb      14.94642     11.15110      8.29674         0.037098      0.299927     -0.707760
Pb       3.69168     11.33305     12.37820         0.373265     -0.644338     -0.040367
Pb      14.98506     11.29199     12.35467        -0.065362     -0.196738     -0.288299
Pb       7.58939      3.63302      4.21700        -0.988699      0.026728      0.433558
Pb       7.57493      3.80519     16.39768        -0.574274     -0.033687      0.390314
Pb       7.49130     14.99963      4.23678        -0.008982     -0.059503     -0.200889
Pb       7.42124      0.07881      0.04394        -0.073721     -0.304950      0.471359
Pb       7.57646      3.68167      8.24893        -0.543387      0.147994     -0.246315
Pb       7.56733     14.91209      8.32305         0.086216     -0.269854     -0.180688
Pb       7.56663      3.70924     12.26079        -0.518790     -0.021563     -0.069589
Pb       7.59042     14.88762     12.48107         0.051306      0.124807     -0.742497
Pb       7.30959      7.57195      4.09814         0.349318     -0.800600      0.444015
Pb       7.50370      7.53243      0.10650        -0.124458     -0.487580      0.045819
Pb       7.45462      7.53218      8.37103        -0.360172     -0.141042     -1.064190
Pb       7.55193      7.39429     12.52128        -0.384901      0.138052     -0.815006
Pb       7.39068     11.35991      4.08366        -0.123565     -0.069133      0.463412
Pb       7.52850     11.26999      0.08940        -0.301182     -0.213800     -0.134708
Pb       7.35598     11.15946      8.35134        -0.076122      0.503084     -0.441014
Pb       7.50785     11.12699     12.44451        -0.121490      0.712973     -0.474582
Pb      11.17130      3.72163      4.13887         0.373666      0.182074      0.043044
Pb      11.25692      3.76237     16.39575         0.230712      0.388181     -0.170810
Pb      11.28683      0.06658      4.21850        -0.434855     -0.466207     -0.247917
Pb      11.08647      0.00339      0.13371         0.553488     -0.205970     -0.013205
Pb      11.35084      3.80200      8.16695         0.316468     -0.356192     -0.451481
Pb      11.25397     14.88318      8.30590         0.137459      0.430693     -0.498132
Pb      11.35090      3.73604     12.26420         0.096659      0.065214      0.109248
Pb      11.30125      0.13145     12.30166         0.329905     -0.564461     -0.390430
Pb      11.15100      7.44987      4.18105         0.528887      0.331518     -0.220846
Pb      11.14489      7.52066      0.13341         0.365291     -0.136022     -0.179017
Pb      11.12675      7.48901      8.20563         0.407469      0.081899     -0.103902
Pb      11.37943      7.40380     12.31035        -0.187336      0.383243      0.038978
Pb      11.22029     11.28560      4.17875         0.366091     -0.146163     -0.386152
Pb      11.23513     11.15451      0.06009         0.080532      0.364589      0.449615
Pb      11.04863     11.08995      8.31530         0.550831      0.485942     -0.963643
Pb      11.25032     11.26926     12.27546         0.178162     -0.172660      0.299630
Ti       1.86539      1.90788      2.09794         0.085885     -0.534644     -0.591010
Ti       1.95147      1.93180     14.47017        -0.751093     -0.597671     -1.411454
Ti       1.89310     13.12227      1.99622        -0.613956      0.085465     -0.386509
Ti       1.83222     13.15817     14.36145        -0.170000     -0.102183      0.124584
Ti      13.12167      1.90431      1.98128        -0.171200     -0.362038      0.145256
Ti      13.12325      1.92080     14.29169         0.922971     -0.862714      0.003358
Ti      13.13196     13.15128      2.04460        -1.397256      0.201416     -0.152920
Ti      13.08712     13.13441     14.37916         0.057371      1.002653     -0.403123
Ti       1.92968      1.86607      6.26786        -0.602556      0.138472      0.102241
Ti       1.89329     13.09933      6.22668        -0.539091      0.097041     -0.688983
Ti      13.14835      1.85345      6.15573         0.842595      0.661172      0.446592
Ti      13.12924     13.09849      6.18892        -0.153450     -0.050047     -0.297602
Ti       1.94482      1.85370     10.23614         1.121132     -0.985685     -0.071214
Ti       1.95420     13.05677     10.28737        -1.385663      1.374395      0.008895
Ti      13.25131      1.91177     10.22550        -1.014543     -1.047995     -0.445363
Ti      13.16525     13.08273     10.20909         0.434381      1.046803      0.164061
Ti       1.81135      5.61384      2.08391        -0.125087      0.372692     -0.274044
Ti       1.92642      5.65008     14.32315        -0.073925     -0.898527      0.162917
Ti      13.12285      5.64728      2.03766        -0.330963     -0.453814     -0.408025
Ti      13.17317      5.65124     14.39904        -0.304112     -0.471948     -0.115687
Ti       1.82647      5.61865      6.12312        -0.091731      0.577243      0.361434
Ti      13.09731      5.64628      6.12148         0.918358     -0.972953      0.049788
Ti       1.98019      5.59566     10.20225        -0.543398      0.678465     -0.235456
Ti      13.13359      5.64151     10.19419         1.408464     -0.602738     -0.710719
Ti       1.85188      9.43773      2.08414        -1.031632     -0.470052     -0.673386
Ti       1.93588      9.34069     14.37544        -1.166700      0.137412     -0.003335
Ti      13.12283      9.41798      2.11210        -0.518196     -0.468069     -0.163617
Ti      13.10360      9.38188     14.26493         0.300545      0.261001      0.008036
Ti       1.77649      9.40106      6.09662         0.306736     -0.541746      0.451888
Ti      13.07409      9.35437      6.23176        -0.398856      0.198100     -1.242933
Ti       1.86843      9.34255     10.24381        -0.460223     -0.709125      0.025486
Ti      13.07160      9.33375     10.20345         0.515357      0.489108      0.182776
Ti       5.54728      1.85443      2.04090         1.180325     -0.222501      0.595875
Ti       5.65494      1.92872     14.28205        -1.025731     -0.422587      0.179046
Ti       5.57709     13.10422      1.99587         0.546099      0.869187      0.065600
Ti       5.65791     13.09248     14.39395         0.042532     -0.430837      0.250142
Ti       5.69828      1.76731      6.35470        -0.039442      0.313897     -1.146188
Ti       5.65228     13.07836      6.23588        -0.060962     -0.116513     -0.594232
Ti       5.70381      1.78546     10.35343        -0.580505      1.378827     -0.674149
Ti       5.67241     13.16900     10.45073         0.702382     -1.102946     -1.182763
Ti       5.55808      5.56999      2.24539         0.551543      0.439357     -0.684305
Ti       5.60075      5.60918     14.39430        -0.227859      0.432160     -0.327138
Ti       5.65864      5.60648      6.23630        -0.528877      0.655357      0.015439
Ti       5.70294      5.63324     10.22573        -0.564223     -0.743442     -0.469207
Ti       5.53142      9.37279      2.06121         0.277729     -0.003004     -0.129909
Ti       5.64635      9.34264     14.35972        -0.886031     -0.198299      0.055292
Ti       5.59484      9.39778      6.06946        -0.533774     -0.524080      0.718413
Ti       5.58859      9.35095     10.32799         0.096653      0.125998     -0.501844
Ti       9.33381      1.92469      2.12089        -0.458770     -1.863105      0.140828
Ti       9.36887      1.85636     14.38404         0.856074      0.358196     -0.011067
Ti       9.31832     13.09763      2.08717         1.072607      0.762287      0.068471
Ti       9.42567     13.10676     14.42026        -0.505321      0.022960     -0.415231
Ti       9.46142      1.85753      6.23386         0.055219     -0.975706     -0.067248
Ti       9.39106     13.00847      6.15244        -0.364987      1.613267     -0.271815
Ti       9.44655      1.85260     10.23867         0.026900     -0.637640     -0.734522
Ti       9.45870     13.05164     10.28441        -1.582525      1.092187     -0.316763
Ti       9.31689      5.63031      2.10138        -0.168918      0.115984      0.560602
Ti       9.37970      5.63611     14.29504         0.204171     -0.853491      0.368945
Ti       9.32456      5.66695      6.11619         0.032955     -0.872151     -0.796644
Ti       9.41967      5.58199     10.20348        -0.194037      0.468499      0.167715
Ti       9.31013      9.37103      2.15561         0.238432     -0.115399     -0.275396
Ti       9.41875      9.37796     14.37848         0.311165     -0.160653     -0.083727
Ti       9.30123      9.33829      6.10392        -0.276213      0.012979     -0.537438
Ti       9.31272      9.35526     10.35048         0.289547     -1.202330      0.253643
O       1.85754      1.86843      0.20300         0.147387      0.027387      0.170804
O       2.08240      1.83661     12.52720        -0.607893     -0.096680      0.355151
O       1.88931     13.01068      0.13020        -0.156959      0.227233      0.270191
O       1.80587     13.19285     12.39861         0.224185     -0.510196      1.210298
O      13.18668      1.92163      0.11401        -0.183364     -0.253044      0.120588
O      13.14951      1.82348     12.35286        -0.079314      0.265956      1.685588
O      13.04302     13.18134      0.14108         0.095550     -0.401651      0.059399
O      13.24878     13.15824     12.50083        -0.598577     -0.433174     -0.061032
O       1.84695      1.83261      4.36282         0.339780      0.078421     -0.344974
O       1.73925     13.10144      4.25424         0.327498      0.311238      0.428996
O      13.06905      1.91294      4.27551        -0.025908     -0.137090     -0.124143
O      13.13066     13.03290      4.25095        -0.289351      0.800374      0.410113
O       1.88509      1.82659      8.34565        -0.211901      0.267639      0.330364
O       1.95873     13.05483      8.35863        -0.304853      0.343133      0.136466
O      13.04605      1.89833      8.39385         0.423937     -0.139148      0.126172
O      13.02309     13.10705      8.37944         0.738956     -0.274297     -0.219013
O       1.80005      5.60599      0.15223         0.308597     -0.003116      0.516529
O       1.88623      5.54962     12.41908         0.027942      0.409880      0.798542
O      13.21005      5.56880      0.07689        -0.042563      0.340775      0.773615
O      13.16952      5.61556     12.49037        -0.298908      0.480813     -0.279004
O       1.67138      5.62219      4.27530         0.766098      0.070877     -0.032491
O      13.17757      5.61210      4.23584        -0.286854     -0.198684     -0.057448
O       1.88130      5.57832      8.30389        -0.034948      0.097328      1.106211
O      13.10972      5.62181      8.29981         0.013770     -0.175490      1.023074
O       1.69322      9.46363      0.17819         0.631656     -0.271542      0.417452
O       1.90892      9.29712     12.50031        -0.057757      0.281359      0.020384
O      13.17614      9.41447      0.19629        -0.532566     -0.125977      0.117301
O      13.03000      9.44064     12.35939         0.009371     -0.528396      1.039506
O       1.72806      9.32813      4.28149         0.426348      0.159107     -0.426444
O      12.96698      9.31161      4.28125         0.246313      0.022723      0.226053
O       1.93370      9.38877      8.38810        -0.524259      0.030267      0.347055
O      13.00831      9.38383      8.30694         0.367986      0.110862      0.662634
O       5.61732      1.83141      0.16264        -0.156326      0.450272      0.070176
O       5.49669      1.81864     12.40796         0.519964     -0.052490      1.118112
O       5.62733     13.05808      0.11786         0.103879      0.041239      0.730793
O       5.68706     13.18534     12.48535        -0.177375     -0.267324      0.182757
O       5.60549      1.90221      4.36699        -0.421184     -0.258298      1.108676
O       5.65943     13.02045      4.36790        -0.193103      0.264100     -0.609291
O       5.79430      1.85820      8.48069        -0.133445     -0.247173     -1.239939
O       5.67863     13.02774      8.46645        -0.177255      0.331375     -0.036931
O       5.45103      5.51966      0.25678         0.460092      0.354264      0.147360
O       5.53334      5.60665     12.54341         0.742132      0.582560      0.019677
O       5.51841      5.68800      4.29562         0.159952     -0.571120      0.442725
O       5.70157      5.60458      8.35393        -0.242217      0.038234      0.491111
O       5.48333      9.46347      0.18890         0.712617     -0.593385      0.312248
O       5.51367      9.31322     12.45795         0.226444     -0.110129      0.900876
O       5.59486      9.39412      4.23025         0.020385      0.127054      0.354454
O       5.62887      9.46105      8.41781        -0.023652     -0.273193      1.004961
O       9.27921      1.88907      0.24200        -0.068599      0.115528     -0.312707
O       9.37263      1.84397     12.57388        -0.031899     -0.158483     -0.586734
O       9.24536     13.03441      0.15326         0.295639      0.150012      0.157884
O       9.36258     13.12682     12.50413         0.021010      0.009952      0.078328
O       9.44284      1.82256      4.32182         0.034277      0.232006     -0.398011
O       9.39940     13.12780      4.25015        -0.043235     -0.521996      0.420557
O       9.45234      1.74808      8.32711        -0.175383      0.688903      0.978338
O       9.32805     13.11406      8.37939         0.157791     -0.273450      0.721079
O       9.30976      5.54397      0.23168        -0.144932      0.052996     -0.109563
O       9.21783      5.48798     12.40533         0.791495      0.493529      1.026275
O       9.19193      5.60196      4.19868         0.977007      0.264379      1.243895
O       9.37388      5.67404      8.35120         0.246545     -0.267844      0.401122
O       9.30424      9.27485      0.15184        -0.024711      0.339346      0.173755
O       9.48975      9.39926     12.49078        -0.373709     -0.225697      0.347978
O       9.42268      9.28852      4.21633        -0.595532      0.074108      0.434658
O       9.35227      9.31006      8.47842        -0.369469     -0.178110      0.140548
O       3.68963      2.07235      2.43398        -0.245266      0.416615     -0.314234
O       3.77693      1.50605     14.58226         0.390452     -0.051646      0.002980
O       3.73896     12.91253      2.24675         0.155384     -0.595752      0.130711
O       3.71697     13.37027     14.52617        -0.129178      0.054855     -0.189490
O      15.00435      1.59795      2.35495        -0.449827      0.171575     -0.342180
O       0.04225      2.16803     14.41900        -0.438879      0.102725      0.242471
O      14.96129     13.37294      2.06641         0.277918     -0.061800      0.539849
O      14.96557     12.79970     14.55192         0.379797     -0.282239     -0.007015
O       3.87174      2.06569      6.54011        -1.720165      0.203215     -0.519331
O       3.72675     12.78435      6.24288        -0.161920      0.104604      0.580552
O       0.04514      1.60643      6.34680        -0.837725     -0.078542      0.157574
O      14.97468     13.30461      6.39104        -0.084914      0.522539      0.351366
O       3.77759      2.10658     10.30985         0.391073      0.339568      0.235102
O       3.75061     12.88394     10.48714         0.658514     -0.394848      0.085030
O       0.08890      1.61058     10.46353        -0.991839     -0.041213     -0.139769
O       0.03352     13.37156     10.40963        -0.297645      0.138621     -0.277931
O       3.65250      5.40245      2.33883         0.084287     -0.258845      0.004092
O       3.74193      6.04434     14.64120         0.071958     -0.630236     -0.430828
O      14.98377      5.82593      2.26637        -0.736284      0.364965     -0.196194
O      15.00094      5.16986     14.39773         0.783663      0.895214      0.325195
O       3.74052      5.39106      6.38797        -0.224657     -0.003306     -0.303945
O      14.98928      5.98296      6.38433        -0.297969     -0.319606     -0.186859
O       3.78319      5.34248     10.45832         0.135485     -0.037430     -0.358024
O       0.06226      5.88492     10.40233        -0.532433     -0.244892      0.033279
O       3.67137      9.67789      2.33584         0.141859     -0.197306     -0.319398
O       3.73171      9.04199     14.65286        -0.038870     -0.157657     -0.157014
O      14.94885      9.17174      2.26927         0.048743     -0.092774      0.113852
O      14.95072      9.63200     14.46787         0.078799      0.232025     -0.002767
O       3.69259      9.59606      6.31678         0.363811      0.457538     -0.020586
O      14.92866      9.03386      6.35797         0.012274      0.159406      0.207368
O       3.73521      9.66445     10.47353        -0.237323     -0.007734      0.079950
O      14.95536      9.01742     10.36841         0.706192      0.330779      0.248347
O       7.38059      1.52480      2.43997         1.109196      0.800668     -0.998712
O       7.49438      2.23671     14.51082        -0.323299     -0.481258      0.150328
O       7.50507     13.40329      2.30385        -1.983313     -0.018637     -0.132709
O       7.51050     12.61122     14.53552        -0.487290      0.800922     -0.407773
O       7.59208      1.64307      6.33036        -0.693547     -0.381275      0.348392
O       7.52978     13.47328      6.30466        -0.218805     -0.563141      0.456881
O       7.51387      1.57064     10.51970         1.322109     -0.129147      0.422620
O       7.54001     13.39580     10.50889        -0.109703      0.103018     -0.034999
O       7.41528      5.93720      2.35598        -0.125472     -0.516730     -0.941594
O       7.47377      5.28545     14.59049         0.295825     -0.131061     -0.180869
O       7.50924      5.82793      6.36033        -0.449669      0.386010      0.129390
O       7.54433      5.90713     10.33219         0.218960      0.003896      0.689918
O       7.39647      8.84665      2.21505         0.464461      1.523773     -0.362749
O       7.47095      9.66196     14.42069         0.714604      0.088138      0.423456
O       7.44989      9.02633      6.38608         0.292764      0.384873     -0.185943
O       7.47182      8.89415     10.60994         0.331810      0.840700     -0.477545
O      11.19148      2.19825      2.10655         0.615505     -0.170373      0.316670
O      11.28192      1.46099     14.48449        -0.526728      0.596490      0.346417
O      11.15267     12.71898      2.04976         0.767794      0.376647      0.526569
O      11.22132     13.53609     14.50785         0.172281     -0.250234      0.185483
O      11.29203      2.15463      6.32581         0.081344      0.289623      0.028645
O      11.20571     12.72654      6.34862         0.988644      0.201187      0.042378
O      11.28059      2.09285     10.56123        -0.436242      0.188147     -0.334426
O      11.26619     12.78103     10.33498        -0.046966     -0.096328      0.677699
O      11.22965      5.38422      2.16822         0.236547     -0.511322      0.160044
O      11.20705      5.81219     14.68420         0.133234      0.599741     -0.583412
O      11.24389      5.33714      6.22196        -0.503202     -0.126039      0.209323
O      11.34197      5.27854     10.36431        -1.657510     -0.112581      0.460255
O      11.13673      9.65263      2.18261         0.583790     -0.187060     -0.245705
O      11.22230      8.86441     14.54015         0.191721      0.835811      0.052980
O      11.17379      9.56681      6.35027        -0.229065      0.324669      0.229393
O      11.22308      9.68041     10.38789        -0.180224     -0.135821      0.255928
O       1.56159      3.75722      2.20406         0.101458     -0.685637      0.042532
O       2.27639      3.72599     14.54127        -0.113520      0.782781      0.276661
O       2.10258     14.96755      2.17276        -0.249132      0.585530      0.454353
O       1.46401     14.99137     14.64657         1.070499     -0.424877     -0.443415
O      13.40988      3.73901      2.07824        -0.138219      0.156229      0.618875
O      12.87020      3.78089     14.39828        -0.570594     -1.351742      0.384475
O      12.76835      0.00420      2.16487         0.206695     -0.004875      0.192130
O      13.50208     15.00517     14.50967        -0.341643      0.246502     -0.125734
O       1.58783      3.77592      6.36570         0.302693     -0.672685     -0.216864
O       2.03718     14.99245      6.34215         0.552296     -0.395586      0.262616
O      13.40566      3.74624      6.39881        -0.080518      0.117762     -0.103910
O      12.81281     14.97890      6.37240         0.292815     -0.010513     -0.206358
O       1.69324      3.70447     10.44613        -0.182647      0.737073     -0.116416
O       2.25780     14.99810     10.40299        -0.632981     -0.517836     -0.059689
O      13.39024      3.75744     10.47193         0.229246     -0.157295     -0.044268
O      12.84465     14.99384     10.40540         0.413420     -0.351281     -0.001776
O       2.02315      7.49801      2.25053         0.117131      0.516681     -0.084640
O       1.55532      7.42603     14.50873        -0.524574      0.910475      0.152242
O      12.84229      7.50999      2.23334         0.126330     -0.362743     -0.189674
O      13.42546      7.53074     14.52252         0.014128     -0.735135     -0.176824
O       2.08546      7.55416      6.39334        -0.009709     -0.966590     -0.225919
O      12.69679      7.46221      6.40166         0.691676      0.238375     -0.321174
O       2.23706      7.46298     10.41867        -0.539681      0.486419      0.152102
O      12.84514      7.46197     10.28959        -0.294229      0.618753      0.804623
O       1.55221     11.27099      2.34703         0.316777      0.041148     -0.363800
O       2.16914     11.22564     14.48881        -0.395894      0.101253     -0.380941
O      13.26736     11.26978      2.34154         0.199397     -0.199855     -0.566147
O      12.70722     11.24545     14.51364         0.385681     -0.292240     -0.091117
O       1.49413     11.25424      6.31751         0.362362     -0.396929      0.125181
O      13.39405     11.21660      6.28723        -0.220435     -0.111720      0.318921
O       1.56517     11.22224     10.34672         0.152486     -0.172496      0.661424
O      13.46256     11.21869     10.39444        -0.254012     -0.029001      0.165382
O       5.75207      3.71053      2.27146         0.144770      0.653065      0.191501
O       5.23904      3.73605     14.38612         0.092936     -0.305989      0.932291
O       5.21995      0.04259      2.21659         0.419284     -1.844318     -0.002723
O       5.84546     14.92557     14.55832         0.662703      1.115609     -0.082839
O       5.89452      3.74121      6.47249        -0.347972     -0.190134     -0.423029
O       5.30603     14.91040      6.35101         0.440551      1.066535      0.346643
O       5.87177      3.75454     10.36957         0.317282     -0.099176      0.588802
O       5.36141     14.99845     10.37560        -0.397899     -0.903463      0.347148
O       5.22691      7.51033      2.34893        -0.087649     -0.203801     -0.526913
O       6.03321      7.49731     14.67594        -0.864276     -0.157619     -0.666817
O       5.33617      7.50517      6.49477         0.576647      0.067752     -0.834355
O       5.27030      7.44548     10.35900         0.199699      0.940902      0.375106
O       5.91844     11.24013      2.23077        -0.196678      0.325256     -0.093059
O       5.23318     11.21616     14.43869         0.119702     -0.168615      0.072157
O       5.92834     11.22240      6.38767         0.025317     -0.415217      0.074108
O       5.84591     11.24856     10.54674         0.365605     -0.553862      0.020559
O       9.03766      3.71934      2.44238         0.299492      0.268638     -1.026580
O       9.74464      3.73349     14.48525        -0.772407     -0.537369      0.409589
O       9.66364     14.96198      2.31113        -0.240389      0.716942     -0.517533
O       8.93324     14.94461     14.66546         0.481909      0.820953     -0.441115
O       9.13733      3.77811      6.26257         0.197401     -0.704916      0.367958
O       9.75394     14.94845      6.29968        -0.302508      0.323976      0.069997
O       9.03350      3.67439     10.40216         0.679893      0.855678      0.034168
O       9.68516     14.99300     10.38704        -0.231026     -0.629291      0.419098
O       9.66715      7.44369      2.29788        -0.446887      0.448928     -0.564447
O       8.97654      7.46669     14.55097         0.549201     -0.148455     -0.300075
O       9.60814      7.48836      6.35450         0.110124     -0.040869     -0.031637
O       9.79852      7.39793     10.61104        -0.790362      0.541942     -0.683211
O       8.93958     11.19724      2.28112         0.121512     -0.288000     -0.374122
O       9.79295     11.24015     14.47645        -0.391948     -0.661060      0.223927
O       9.08174     11.16584      6.33033        -0.296234      0.367749      0.278014
O       8.99524     11.19068     10.45681         0.505326      0.223087      0.079072
