  # total energy = -7868.89215665 
CRSYTAL
PRIMVEC
    15.010000000000000    0.0000000000000000    0.0000000000000000
     0.0000000000000000   15.010000000000000    0.0000000000000000
     0.0000000000000000    0.0000000000000000    16.400000000000000
PRESSURE
18.2899 17.9705 9.41101 0.056875 -0.012627 -0.064183
PRIMCOORD
320 1
Pb       3.72222      3.75811      4.17728         0.281541     -0.145642     -0.453620
Pb       3.76143      3.73366      0.07583        -0.526169     -0.091403     -0.152332
Pb       3.75896     15.00335      4.10909        -0.325432      0.115132     -0.068493
Pb       3.64790     14.98461      0.02759         0.551711      0.470036     -0.042548
Pb       0.01818      3.71734      4.07164         0.043783      0.220911      0.445208
Pb       0.03128      3.84461     16.39444        -0.236277     -0.764878      0.207603
Pb       0.06472     14.95673      4.01605        -0.393716      0.352027      0.879003
Pb      14.98079      0.02115     16.37613        -0.290336      0.227785     -0.110496
Pb       3.85171      3.77310      8.18523        -0.030597     -0.783837      0.199060
Pb       3.76358     14.86340      8.23552        -0.043206      1.002497      0.594077
Pb       0.06732      3.73733      8.16808        -0.118128      0.030844     -0.078810
Pb       0.09354      0.00151      8.26115        -0.335508      0.033194     -0.382197
Pb       3.71014      3.75165     12.31238         0.005908     -0.496814      0.247957
Pb       3.77707     14.96386     12.32819        -0.337234      0.273315      0.324062
Pb       0.01935      3.76137     12.24116        -0.421322     -0.018762      1.119113
Pb      14.98842     15.00551     12.31520         0.114679     -0.197622      0.193613
Pb       3.72442      7.43823      4.13253        -0.375886      0.032145      0.029337
Pb       3.69105      7.45217      0.00920         0.073276      0.074742      0.028606
Pb      14.85914      7.48849      4.07849         0.657539      0.063611      0.171105
Pb      14.95067      7.54611     16.35504         0.284946     -0.381190      0.635411
Pb       3.75152      7.43990      8.24241        -0.332413      0.155255     -0.205998
Pb      14.92337      7.45338      8.16242         0.511930      0.111544     -0.112764
Pb       3.75360      7.47838     12.33284        -0.024294     -0.303371      0.230871
Pb       0.00043      7.52984     12.30946         0.255152     -0.784103      0.377059
Pb       3.68459     11.35260      4.05276        -0.126557     -0.528465     -0.027415
Pb       3.70186     11.33866     16.37203         0.086111     -0.547162      0.351398
Pb      14.89281     11.33964      4.07394         0.245726     -0.564508      0.474124
Pb      14.90283     11.17166     16.36085         0.259374      0.354194      0.413017
Pb       3.72305     11.25469      8.25326        -0.295539     -0.215954      0.006292
Pb      14.91320     11.23551      8.23737         0.261556     -0.138779     -0.295535
Pb       3.69484     11.24656     12.35168        -0.073193      0.055487     -0.016628
Pb      14.94494     11.23803     12.32787         0.212663      0.307777     -0.189234
Pb       7.48747      3.61795      4.20962         0.299490      0.655159      0.104964
Pb       7.47954      3.71459      0.04877         0.347281     -0.007892     -0.605888
Pb       7.47539      0.05560      4.14172         0.438216     -0.482998     -0.129477
Pb       7.55091      0.09644      0.07355        -0.039274     -0.671079     -0.496909
Pb       7.54768      3.74368      8.19472        -0.691106      0.117609      0.189248
Pb       7.53962     14.84402      8.24415        -0.467857      0.211383      0.458337
Pb       7.60950      3.68300     12.29290        -0.918113      0.185173      0.267503
Pb       7.51496      0.02082     12.39268        -0.120067     -0.179991     -0.735024
Pb       7.44036      7.52137      4.19107         0.050350     -0.141452     -0.144296
Pb       7.45453      7.49876      0.05520        -0.002522      0.171060     -0.455238
Pb       7.43448      7.55482      8.15302         0.311799     -0.844174      0.643185
Pb       7.44509      7.42858     12.33844         0.281912     -0.240134      0.346688
Pb       7.36028     11.26902      4.08833         0.404084      0.021323     -0.069659
Pb       7.48441     11.20276     16.39988         0.263056      0.429790      0.331587
Pb       7.36880     11.18307      8.29284         0.228469      0.368893     -0.244001
Pb       7.46386     11.17570     12.43428         0.073061      0.227512     -0.511247
Pb      11.31443      3.68586      4.08077        -0.689095      0.393673      0.512732
Pb      11.19577      3.70661     16.39985         0.840429      0.238981      0.217442
Pb      11.17620      0.05198      4.11236         0.219870     -0.449509      0.105780
Pb      11.25927      0.05994      0.01246        -0.178457     -0.729383      0.294262
Pb      11.25839      3.73323      8.17221        -0.134363     -0.144535      0.102011
Pb      11.24225     14.94382      8.21156        -0.091600      0.098981     -0.005350
Pb      11.32267      3.75942     12.32645        -0.282521     -0.487175      0.053900
Pb      11.29008     14.98674     12.25218        -0.641349      0.094442      0.148746
Pb      11.19687      7.47296      4.06753        -0.506708      0.034455      0.360299
Pb      11.26148      7.53109      0.00063        -0.205347     -0.302724      0.445710
Pb      11.27799      7.53276      8.16978        -0.220460     -0.207792      0.251628
Pb      11.33180      7.55533     12.32706        -0.942984     -0.469671     -0.175061
Pb      11.18811     11.25970      4.10198        -0.263457      0.292042      0.142663
Pb      11.25936     11.27353     16.39735        -0.545061      0.211197      0.378437
Pb      11.17085     11.14189      8.15659         0.282567      0.422536      0.011319
Pb      11.31962     11.19393     12.31016        -0.439093      0.155899     -0.149625
Ti       1.85926      1.83861      2.07282         1.148778      0.617318      0.144959
Ti       1.87579      1.84483     14.36859        -0.258144      1.185464      0.228645
Ti       1.74658     13.07571      1.97827         1.125673      0.452870      0.409650
Ti       1.83231     13.14029     14.41851        -0.084550     -0.434856     -1.051957
Ti      13.15989      1.82820      2.18566        -0.811528     -0.437789     -0.794970
Ti      13.13304      1.81876     14.48184         0.722888      1.050471      0.344713
Ti      13.14825     13.11594      2.07423        -2.070274      0.280693      0.014026
Ti      13.07559     13.07810     14.39968         0.387551      0.543870     -0.114440
Ti       1.86007      1.81186      6.16437        -0.441890     -0.166567     -0.106627
Ti       1.83627     13.12504      6.24013         0.709067     -0.934025      0.632723
Ti      13.11955      1.86186      6.22817         0.201759     -0.213659     -0.448428
Ti      13.09730     13.17909      6.19066        -0.376942     -0.794885      0.480836
Ti       1.79012      1.90132     10.37067         1.534664     -0.713746      0.240119
Ti       1.77429     13.09253     10.36870         0.291691      0.734232     -0.506947
Ti      13.10724      1.84031     10.26935        -1.078129      0.232323     -0.714463
Ti      13.00632     13.10056     10.25143         1.497653     -0.412406      0.144003
Ti       1.88194      5.60902      2.13676         0.134569      0.313083     -0.595064
Ti       1.86629      5.60698     14.44571         0.190930      0.071678      0.372829
Ti      13.09682      5.56575      2.12334        -0.327686      0.683837      0.179851
Ti      13.12437      5.59794     14.41111         0.716518     -1.246305     -0.331554
Ti       1.93888      5.54483      6.20103        -0.966973      0.904133     -0.256756
Ti      13.12463      5.56466      6.21880         0.505502      0.998374      0.533555
Ti       1.84849      5.64816     10.37328        -0.165428     -0.518763      0.085762
Ti      13.05952      5.56965     10.38380         1.366866     -0.161532     -0.507171
Ti       1.81265      9.35756      2.10349        -0.728011     -0.471625      0.259660
Ti       1.84964      9.33387     14.40267         0.010440      0.801167      0.133485
Ti      13.00853      9.34694      2.11896         1.035101      0.151361      0.044068
Ti      13.09172      9.33777     14.43971         0.357441      0.047376      0.860734
Ti       1.84122      9.37725      6.19838         0.521052     -0.606570      0.490327
Ti      13.14347      9.38965      6.14653        -0.435868     -0.117634      0.410621
Ti       1.87776      9.36735     10.32122        -0.163104     -0.063147     -1.033974
Ti      13.16891      9.28892     10.40219        -0.411599      1.119837     -1.377027
Ti       5.63619      1.89577      2.11144        -0.343087     -0.583539     -0.230874
Ti       5.63327      1.87284     14.44174        -0.585836     -0.703084     -0.709287
Ti       5.53522     13.17617      2.04839         0.677890     -0.613729      0.471187
Ti       5.64705     13.15374     14.46505        -0.448397      0.356474     -0.464889
Ti       5.59254      1.77670      6.20423        -1.003960      1.054698      0.104891
Ti       5.56552     13.10642      6.23794         0.370592     -0.169247      1.139454
Ti       5.56366      1.78642     10.37271        -0.371389      0.265806     -1.125397
Ti       5.52119     13.03758     10.36678         1.181562      0.801819     -0.862139
Ti       5.72374      5.61344      2.02577        -0.830945     -0.568591      1.552026
Ti       5.65893      5.54855     14.41018        -0.151208      0.962995     -0.055316
Ti       5.66836      5.60396      6.15703        -0.622866     -0.705231     -0.119101
Ti       5.62525      5.51244     10.37204         0.400892     -0.096055     -0.301921
Ti       5.49521      9.30307      2.17759         0.730954      0.801478     -0.632543
Ti       5.55811      9.38377     14.48758         1.185527     -0.984343     -0.020579
Ti       5.51871      9.37784      6.25521         0.441962     -0.021844     -0.316394
Ti       5.63066      9.28579     10.37418        -0.075447      0.368654     -0.697236
Ti       9.39603      1.90813      2.06476        -0.074372     -0.587622      1.477618
Ti       9.41773      1.88103     14.34081        -0.527933     -0.351370      0.269420
Ti       9.36190     13.14479      2.14659         0.377332     -0.137079     -0.423559
Ti       9.39456     13.12558     14.40682        -0.658965      0.295034      0.147362
Ti       9.30134      1.85998      6.27561         0.510499      0.035100     -0.542873
Ti       9.33510     13.11640      6.21662         0.588102      0.089910     -0.015522
Ti       9.32843      1.84381     10.23295         0.424005     -0.557559      1.395917
Ti       9.32493     13.02919     10.37718        -0.515127      1.225418     -0.610817
Ti       9.35426      5.59708      2.05749         0.417389      0.682976      0.751312
Ti       9.40909      5.66916     14.51122         0.261347     -0.886165     -1.090929
Ti       9.38914      5.66124      6.22853        -0.420002     -1.238328      0.764842
Ti       9.41312      5.56527     10.35919        -2.082425      1.141574     -1.414885
Ti       9.24887      9.39579      2.08267         1.702070     -0.143296      0.448595
Ti       9.32265      9.37307     14.43953         0.746618     -0.103321      0.069890
Ti       9.29513      9.37132      6.25803         0.522739      0.701828      0.441730
Ti       9.34353      9.32291     10.37343         0.826426     -0.526621     -0.416132
O       2.04098      1.84418      0.26767        -0.259797      0.178801      0.457246
O       1.78845      1.94010     12.57585        -0.119937     -0.571635      0.306509
O       1.74170     13.16075      0.18719         0.040830     -0.206403      0.127746
O       1.88991     13.04176     12.54703         0.064897      0.204645      0.800067
O      13.08304      1.72207      0.37669        -0.010086      0.365455     -0.057488
O      13.06711      1.87305     12.70452         0.094537     -0.304764     -0.671735
O      13.28823     13.12182      0.27765        -0.454286      0.151649     -0.103498
O      12.97419     13.03515     12.58537         0.279223      0.261572      0.143644
O       1.90370      1.86859      4.31747        -0.322313     -0.199643      0.391559
O       1.92953     13.15440      4.42977         0.109489     -0.120855     -0.224452
O      13.22237      1.89488      4.36717        -0.040251     -0.187666      0.685697
O      13.12633     13.06138      4.40358        -0.147991      0.132045     -0.368477
O       1.84122      1.85817      8.60432        -0.400631      0.051740     -0.931639
O       1.81345     13.05404      8.50220        -0.408312      0.226651      1.135246
O      13.13651      1.82610      8.47161         0.277678      0.330646     -0.004788
O      13.11537     13.12408      8.44939         0.306575     -0.102033      0.495026
O       1.89635      5.64120      0.28592         0.128281      0.014381      0.632836
O       1.86630      5.64710     12.66332        -0.052117      0.051891     -0.415779
O      12.97162      5.62593      0.36389         0.711089      0.111188      0.033376
O      13.17448      5.45364     12.57949        -0.640843      0.847222      0.609741
O       2.00520      5.49990      4.37634        -0.177207      0.066449     -0.162947
O      13.06848      5.57378      4.45303         0.058251      0.066922     -1.067989
O       1.81683      5.65042      8.59153         0.215744     -0.378894     -0.845543
O      13.15402      5.59874      8.56980        -0.041186     -0.060507     -0.188651
O       1.88753      9.25788      0.31388        -0.029139      0.300351     -0.490336
O       1.85242      9.32476     12.60485         0.233362      0.291855     -0.167487
O      13.16134      9.30532      0.29618        -0.584639      0.129493      0.052962
O      13.12390      9.29883     12.65639         0.153357      0.368113     -0.578160
O       1.89071      9.40108      4.41300         0.010538     -0.074227     -0.715083
O      13.17404      9.37199      4.34288        -0.017053      0.116765     -0.130951
O       1.77807      9.26290      8.49583         0.078497      0.159617      1.036686
O      13.10595      9.23798      8.58426         0.426099      0.340284     -0.291255
O       5.55656      1.74034      0.28222         0.279806      0.439356     -0.086588
O       5.64058      1.90594     12.59863         0.180112     -0.142546      0.573187
O       5.58563     13.21490      0.26457         0.091635     -0.134969      0.252624
O       5.51184     13.05264     12.59520         0.348406     -0.354592      0.617065
O       5.72260      1.77451      4.32024        -0.546220      0.083355      0.715242
O       5.45301     13.09173      4.45197         0.010146      0.191038     -0.969037
O       5.55995      1.86183      8.54601        -0.078498     -0.232322     -0.193117
O       5.60995     13.06345      8.45318         0.286383      0.254630      2.002742
O       5.73424      5.69653      0.21997        -0.152788     -0.387059      0.562311
O       5.54685      5.48229     12.60766         0.572872      0.227882      0.202654
O       5.69283      5.50392      4.33201        -0.366087      0.359236      0.659968
O       5.55743      5.63782      8.54929         0.067685     -0.086512      0.236344
O       5.54998      9.23279      0.34141         0.295776      0.365377      0.237485
O       5.66511      9.41823     12.66049        -0.132715      0.269621     -0.041315
O       5.55629      9.35546      4.41959         0.013887      0.115548      0.243162
O       5.64513      9.24044      8.52302         0.058301      0.227459      0.912192
O       9.47749      1.85996      0.28358        -0.590825     -0.215090      0.171836
O       9.42760      1.90165     12.51182        -0.209976     -0.425703      1.072935
O       9.41111     13.23607      0.32847        -0.447658     -0.629612      0.319591
O       9.42623     13.04230     12.58720        -0.230160      0.363081      0.107009
O       9.28679      1.81690      4.41284         0.083384     -0.174654      0.466919
O       9.47997     13.20766      4.41499        -0.502255     -0.172308      0.065106
O       9.29884      1.87422      8.46205        -0.158738      0.203161     -0.702193
O       9.38553     13.09476      8.52633        -0.415890     -0.258239      0.573583
O       9.47637      5.58980      0.26954        -0.569525     -0.129724     -0.184484
O       9.46056      5.65703     12.67216        -0.123477     -0.020023     -0.085509
O       9.39407      5.55578      4.47189        -0.211890      0.489957     -0.720413
O       9.30494      5.61745      8.48744         0.374950     -0.560887      1.201796
O       9.42310      9.42737      0.29723        -0.249928      0.133121      0.157020
O       9.28210      9.22216     12.61299         0.543575      0.533785      0.647013
O       9.22335      9.41532      4.51371         0.220367     -0.344245     -1.317279
O       9.33001      9.46668      8.52603         0.166755     -0.410667      0.345589
O       3.83830      2.15245      2.37033        -1.450652     -0.168756      0.063692
O       3.71083      1.74742     14.56672         1.051184      0.348736      0.451805
O       3.60119     12.95119      2.17836         1.053986     -0.335313      0.514795
O       3.70846     13.29807     14.72109         0.508451     -0.612660     -0.025656
O       0.00726      1.58036      2.27169         0.321368      0.560954      0.205012
O       0.05447      1.95246     14.90247        -1.511774     -0.126340     -0.480452
O      14.97606     13.21432      2.51452         0.391197      0.568616     -0.259824
O      14.98951     13.09884     14.53669        -0.105528     -0.704298      0.100443
O       3.61866      1.74778      6.48658         2.724545      0.101418      0.018412
O       3.77581     13.14730      6.69340        -1.032054     -0.313397     -0.919871
O      14.99631      1.82666      6.54176         0.407895      0.025994      0.014875
O       0.00429     13.08965      6.37789        -0.240549     -0.129320      0.474932
O       3.71246      2.07092     10.64217        -0.050327     -0.227399      0.162586
O       3.67319     12.86737     10.55171         0.271922      0.033971      0.093774
O      14.91492      1.73496     10.65725         0.884819     -0.372135     -0.061415
O      14.93307     13.19089     10.68731        -0.277486      0.830946     -0.205075
O       3.79730      5.43167      2.31615         0.687099     -0.065061     -0.056857
O       3.78578      5.72616     14.69729        -0.294377     -0.187119      0.100082
O       0.00753      5.78302      2.40528        -0.982734     -0.312214     -0.042024
O      14.98388      5.53117     14.86383        -0.086786      0.682798     -0.619208
O       3.76605      5.59134      6.54579         0.407000      0.089387     -0.009869
O       0.04066      5.50961      6.43223        -0.280951     -0.056828      0.322605
O       3.73781      5.47444     10.73748         0.166704      0.162377     -0.639832
O      14.97028      5.71228     10.73138         0.476322      0.006922     -0.529449
O       3.68556      9.53025      2.32997        -0.220814     -0.307662      0.408395
O       3.76257      9.27087     14.65775        -0.659684     -0.083172      0.188006
O      14.95180      9.02917      2.28882        -0.036603      0.416691      0.278140
O      14.96749      9.47019     14.77754         0.464097     -0.336860     -0.605763
O       3.74817      9.32883      6.66755        -0.610148     -0.541135     -0.369155
O       0.02144      9.42484      6.49918        -0.844149     -0.082382      0.052320
O       3.76010      9.50992     10.51809        -0.064052      0.081266      0.621583
O       0.04472      9.16048     10.70376        -0.579050      0.293564     -0.275631
O       7.53769      1.56544      2.34130        -0.013425      0.211004     -0.380003
O       7.51337      1.91327     14.75009         0.891325      0.013580     -0.115819
O       7.43866     13.25006      2.39260        -0.455393     -0.105988      0.082887
O       7.48173     13.08470     14.72284         0.448369     -0.123541     -0.162912
O       7.38242      1.92835      6.43033         1.455476     -0.617080      0.317491
O       7.45723     13.03259      6.47442         0.348596      0.026662      0.033461
O       7.43701      1.69025     10.57686         1.334386     -0.424579      0.365587
O       7.46969     13.40610     10.60536         0.165380     -0.847716      0.020791
O       7.54106      5.86241      2.44279        -0.191794     -0.363812     -0.438765
O       7.55872      5.59723     14.66151        -0.482647     -0.570359      0.268994
O       7.44676      5.58907      6.54905         0.893218      0.008715     -0.158194
O       7.47388      5.77381     10.62274         0.765331     -0.274877      0.242616
O       7.47060      9.39765      2.45682        -0.563018     -0.591759     -0.188840
O       7.53354      9.37589     14.81682        -0.886501      0.594525     -0.130895
O       7.43395      9.42099      6.62424         0.271223      0.090101     -0.511562
O       7.52990      9.15882     10.71968        -0.501441      0.507096     -0.545122
O      11.26062      1.96269      2.49150        -0.425783      0.017941     -0.322319
O      11.23487      1.78395     14.76383         0.702315     -0.079026     -0.372217
O      11.25354     12.98806      2.40763         0.862300     -0.206978     -0.196578
O      11.21362     13.17138     14.76618         0.994486     -0.276983      0.001266
O      11.23464      1.86932      6.52620        -0.140711      0.108000     -0.270608
O      11.23189     13.15067      6.61532         0.315999      0.223425     -0.518876
O      11.23727      2.08138     10.41273        -0.272873      0.006850      0.592727
O      11.23364     12.94180     10.60345        -0.354726     -0.259988      0.015744
O      11.16538      5.38935      2.37668         1.354504     -0.001290      0.588491
O      11.35434      5.67921     14.71346        -2.129938     -0.110527      0.043132
O      11.24140      5.56089      6.55174         0.298915      0.311927     -0.001662
O      11.20526      5.50863     10.57649         1.436929     -0.499118      0.339415
O      11.20981      9.49829      2.51658        -0.140006      0.072205     -0.372237
O      11.27675      9.49252     14.75987        -0.933650     -0.794575     -0.415142
O      11.27112      9.22691      6.52718        -0.394261      0.474775     -0.211794
O      11.30301      9.42177     10.68358        -0.711836      0.261823      0.124520
O       1.71822      3.72440      2.35729        -0.172757     -0.213950     -0.029527
O       1.83710      3.78776     14.73920         0.798430     -0.817992      0.074278
O       2.08506     15.00887      2.38491        -0.318619     -0.740537     -0.198891
O       1.69422      0.02098     14.62956         0.308022     -0.860014     -0.081935
O      13.22590      3.71817      2.49244         0.362651     -0.079811     -0.388578
O      13.05796      3.71748     14.87196         0.104213     -0.257183     -0.412143
O      12.96366     14.94209      2.44429         0.281857      0.680586      0.139222
O      13.24132     14.94842     14.68253        -0.275854      0.401136      0.011849
O       1.97670      3.64373      6.48537        -0.529406      0.728122      0.252327
O       1.94701     14.93450      6.67361        -1.012182      0.490664     -0.606760
O      13.16454      3.74027      6.50910        -0.206451     -0.603489      0.321638
O      13.12628      0.00248      6.50544         0.174832     -0.102406     -0.092064
O       1.75120      3.74059     10.72578        -0.136130      0.748294     -0.715642
O       2.05961      0.02716     10.68678        -0.872682     -1.113546     -0.301085
O      13.22421      3.68142     10.70508        -0.069868      0.822014     -0.632702
O      12.82571     14.98197     10.52848         0.838964     -0.126229      0.241219
O       2.03801      7.44850      2.43339         0.282882      0.557564      0.185625
O       1.72178      7.52271     14.65284         0.287797     -0.585614      0.352480
O      12.81090      7.46384      2.46929         0.820322     -0.515473     -0.400475
O      13.10399      7.44561     14.70507         0.503746      1.316847     -0.153182
O       1.87952      7.41289      6.38474         0.024465      0.633845      0.243230
O      13.22497      7.50365      6.42701        -0.074337     -0.749266      0.289759
O       2.04073      7.47507     10.63948        -0.000853      0.527921      0.153701
O      13.07726      7.47838     10.65001        -0.436326     -1.526521      0.415843
O       1.56630     11.24091      2.34550         0.394809     -0.147396     -0.212413
O       2.04486     11.21629     14.71215        -0.554223      0.519098     -0.218070
O      13.31323     11.23989      2.27018        -0.000373     -0.657877      0.296513
O      13.08993     11.25360     14.80469         0.060533     -0.342209     -0.404786
O       2.01434     11.19332      6.62237        -0.524981      1.118963     -0.643815
O      13.09038     11.23188      6.47680         0.030383      0.074699      0.240927
O       1.59100     11.24300     10.63504         0.535093     -0.787415     -0.271957
O      13.28315     11.19572     10.59906        -0.074816      0.294023      0.001212
O       5.95003      3.71294      2.35238        -0.002487      0.930703     -0.676376
O       5.67617      3.69217     14.87081        -0.541339      0.984492     -0.219821
O       5.31807      0.00404      2.35118         0.344115     -0.994909      0.120715
O       5.74688     15.00996     14.59812        -0.095041     -0.162075      0.186584
O       5.59168      3.68537      6.47319        -0.595348      0.304391      0.081074
O       5.62631     14.99535      6.60329         0.074272     -0.741662     -0.446454
O       5.85264      3.64781     10.53671        -0.337270      1.717291      0.325222
O       5.42379     14.91656     10.67285        -0.193439      0.223051     -0.113345
O       5.61519      7.45304      2.49926        -0.682925      0.241395     -0.168090
O       5.79405      7.49821     14.67650        -0.384313     -0.274069     -0.209534
O       5.63956      7.45833      6.41853        -0.054810      0.458288      0.094640
O       5.58165      7.47681     10.72234        -0.804221     -0.384904     -0.048492
O       5.62304     11.18650      2.50157         0.130058      1.451883     -0.612675
O       5.63735     11.27392     14.92505        -0.555360     -0.569824     -0.855187
O       5.51795     11.21940      6.64987         0.316920      0.152364     -0.735243
O       5.83268     11.22299     10.57632         0.257972     -0.638655      0.213019
O       9.19422      3.75407      2.48026        -0.214294     -1.040090     -0.617307
O       9.50881      3.71400     14.79553        -0.459294      0.358226     -0.662278
O       9.57180     14.97369      2.43189        -0.294809      1.157437     -0.274859
O       9.37520     14.97976     14.71095        -0.446689      0.950465     -0.388640
O       9.26418      3.69887      6.49071         0.439210      0.837742      0.226022
O       9.30978     15.00632      6.60056        -0.116756     -0.215727     -0.290589
O       9.21957      3.71241     10.70863         0.217817      0.454856     -0.889549
O       9.57378     15.00372     10.54061        -0.000165     -0.204214      0.255414
O       9.59498      7.50610      2.29364        -0.477037      0.287049      0.356859
O       9.31992      7.49696     14.85619         0.669128      0.642652     -0.389058
O       9.30641      7.49277      6.51750        -0.050303      0.215553      0.027853
O       9.62014      7.48161     10.50600        -0.346454     -0.284868      0.375200
O       9.36943     11.26529      2.48881        -0.827581     -0.238789     -0.111147
O       9.35456     11.26180     14.75452         0.089797     -0.358301     -0.135954
O       9.53511     11.28071      6.43843        -0.520553     -0.987379      0.210291
O       9.29064     11.20652     10.64441        -0.457227     -0.222589      0.305690
