  # total energy = -7881.23191898 
CRSYTAL
PRIMVEC
    15.6000000000000000    0.0000000000000000    0.0000000000000000
     0.0000000000000000   15.6000000000000000    0.0000000000000000
     0.0000000000000000    0.0000000000000000    17.640000000000000
PRESSURE
-5.28389 -5.40339 -7.10416 -0.027786 0.36141 -0.032007
PRIMCOORD
320 1
Pb       3.85107      3.82721      4.40918         0.290607      0.100796     -0.331421
Pb       3.98929      3.99724     17.59386        -0.045781     -0.372734     -0.182823
Pb       3.75401     15.45640      4.34687         0.715796     -0.404194      0.329519
Pb       3.78335     15.57052      0.05077         0.445908      0.156147     -0.533098
Pb      15.54709      3.84741      4.36944         0.165933      0.055725     -0.424351
Pb       0.03715      3.98807     17.61721        -0.074761     -0.295069     -0.444504
Pb      15.57561     15.53675      4.35460        -0.079219      0.290383     -0.336639
Pb      15.40486     15.58679     17.61865         0.338231     -0.050493     -0.017345
Pb       3.82991      4.01635      8.81469        -0.211757     -0.286620     -0.277421
Pb       3.88703     15.58261      8.75373         0.009603      0.110320      0.060668
Pb      15.55313      3.99100      8.84314         0.016218     -0.229952     -0.196976
Pb      15.52611     15.59459      8.64339        -0.080759      0.057495      0.781997
Pb       3.95619      3.72527     13.27836        -0.059751      0.243664     -0.205562
Pb       3.87775     15.56599     13.15484         0.060680      0.014610     -0.329858
Pb       0.02099      3.92131     13.16640        -0.071307     -0.107646      0.069227
Pb      15.50682     15.57900     13.20481         0.181784      0.154205     -0.315892
Pb       3.95036      7.76010      4.44756         0.035463      0.209619     -0.641101
Pb       4.00435      7.73912     17.59680        -0.091459      0.084918     -0.311844
Pb       0.04682      7.79398      4.32034         0.047026     -0.399052     -0.092848
Pb       0.08595      7.74918     17.49583         0.024732      0.186382     -0.062957
Pb       3.88363      7.82090      8.79738         0.033533     -0.122131      0.221550
Pb      15.48818      7.78493      8.84412         0.513004      0.671004     -0.139356
Pb       3.91747      7.73613     13.18469         0.219721      0.001465     -0.216902
Pb       0.09928      7.77546     13.17120        -0.039262     -0.252071     -0.022034
Pb       3.90742     11.64793      4.34623        -0.015300      0.187301      0.006305
Pb       3.85096     11.72320     17.59079         0.062041     -0.581449      0.086155
Pb      15.58774     11.71232      4.29849         0.276802      0.004822     -0.065623
Pb      15.59576     11.71210     17.44911         0.052956     -0.027678      0.434865
Pb       3.82258     11.75407      8.86862         0.063450     -0.076704     -0.120042
Pb      15.53268     11.81059      8.76374         0.122624     -0.524501      0.126705
Pb       3.85193     11.79617     13.16239        -0.170602     -0.234194     -0.049688
Pb      15.44921     11.78393     13.17839         0.076701      0.086190     -0.250152
Pb       7.75756      3.66639      4.44995         0.276502     -0.122398     -0.162059
Pb       7.76591      3.93224      0.00535        -0.034971     -0.489013     -0.129982
Pb       7.61546     15.48623      4.43133         0.131163     -0.333593     -0.530948
Pb       7.68424      0.02704     17.56595         0.290565      0.172166      0.286205
Pb       7.57867      3.94865      8.83482         0.489129     -0.189415     -0.447801
Pb       7.75157      0.02448      8.81546         0.040734      0.092399     -0.251961
Pb       7.90569      3.93781     13.26273        -0.232119      0.224587     -0.406262
Pb       7.81672      0.11223     13.14366        -0.000617     -0.338553     -0.256980
Pb       7.87530      7.67230      4.39585        -0.091522      0.385000     -0.141418
Pb       7.77701      7.80601     17.63888         0.035785     -0.102244     -0.286053
Pb       7.70526      7.82943      8.79583         0.024757      0.074720     -0.491723
Pb       7.77562      7.84328     13.17168        -0.278687     -0.331707     -0.002472
Pb       7.78913     11.59571      4.38281         0.025847      0.050568     -0.303127
Pb       7.77085     11.66462     17.52281         0.423016      0.073500     -0.038413
Pb       7.80596     11.76088      8.74383        -0.131938     -0.256166     -0.060378
Pb       7.74177     11.81663     13.12704         0.421121     -0.158840     -0.115675
Pb      11.76217      3.81218      4.34963        -0.469307     -0.094222     -0.188302
Pb      11.69279      3.81290      0.03292        -0.010965     -0.086978     -0.209269
Pb      11.60682     15.44665      4.40012        -0.236900      0.116083     -0.670998
Pb      11.56217     15.49909      0.02005        -0.156408      0.168408      0.022674
Pb      11.62183      3.92470      8.76110        -0.062629      0.092431     -0.154163
Pb      11.77282      0.01554      8.74577        -0.434728     -0.154614     -0.108462
Pb      11.78102      3.92320     13.15017        -0.027893     -0.237752     -0.288270
Pb      11.65558     15.59988     13.13237        -0.040058      0.143758      0.057613
Pb      11.68905      7.72802      4.32971        -0.183795     -0.327578      0.123847
Pb      11.63772      7.71220     17.56047        -0.029320     -0.022960      0.044495
Pb      11.62544      7.80050      8.75264        -0.215085      0.056503     -0.345028
Pb      11.68576      7.74382     13.14031        -0.111134      0.213150      0.209051
Pb      11.69370     11.49915      4.27499        -0.572746      0.474024      0.159337
Pb      11.67626     11.62840     17.51276        -0.036670      0.504494      0.092987
Pb      11.70066     11.73431      8.81357        -0.146892     -0.038757     -0.389391
Pb      11.61403     11.69300     13.18089        -0.106080     -0.201367     -0.338660
Ti       2.04594      1.87708      2.41192        -1.011152      0.801849      0.125603
Ti       1.94299      1.88593     15.61231         0.213523      0.616663     -0.467562
Ti       1.89561     13.63673      2.24893         0.991875     -0.866260     -0.423415
Ti       2.07798     13.61052     15.57310        -0.576649     -0.258682     -0.227852
Ti      13.69436      1.88933      2.34306        -0.473657     -0.099278     -0.401069
Ti      13.62761      1.96090     15.73786         0.399069      0.153009     -1.905507
Ti      13.61140     13.58175      2.33497        -0.929927     -0.052792     -0.250941
Ti      13.71238     13.68982     15.51793        -0.250735     -0.425883     -0.379266
Ti       1.84279      1.90219      6.78276         0.356324      0.708680     -1.026613
Ti       1.90198     13.71102      6.86014         0.835693     -0.950004     -1.394535
Ti      13.58711      1.93951      6.73213        -0.029339      0.058728     -1.246540
Ti      13.58781     13.62662      6.69238        -0.638021      0.326429     -0.045258
Ti       1.94827      1.93202     11.17466         0.736361     -0.603533     -0.977606
Ti       1.94325     13.61650     11.10785        -0.444463      0.379639     -0.318831
Ti      13.64721      1.94080     11.19700        -0.124243      0.010402      0.213882
Ti      13.57463     13.69501     11.11537         0.335105     -0.339377      0.095163
Ti       2.05634      5.78216      2.27419        -0.151527      0.258514     -0.707440
Ti       1.98235      5.79160     15.53303         0.191034     -0.317898     -1.128096
Ti      13.68925      5.77816      2.27097        -0.362436      0.044728     -0.460147
Ti      13.65826      5.87734     15.59690        -0.296626     -0.950638     -0.469080
Ti       1.85002      5.86090      6.78260         0.667606      0.130091     -0.369254
Ti      13.67569      5.82917      6.79462        -0.861952      0.169817     -1.509241
Ti       2.06677      5.77781     11.18249        -0.574434      0.223889     -1.086360
Ti      13.68622      5.91614     11.18411        -0.177146     -1.089778     -0.071158
Ti       1.94511      9.69627      2.36226         0.501932      0.774352     -0.154221
Ti       1.96396      9.69481     15.49719         0.348541      0.854154      0.179442
Ti      13.68035      9.65293      2.49594        -0.223657      0.796841     -0.913727
Ti      13.66674      9.71842     15.65928        -0.264355      0.464932     -1.324298
Ti       2.01554      9.78480      6.87735        -0.384793      0.180060     -1.599002
Ti      13.66340      9.71641      6.76971        -0.386438     -0.151520     -0.899476
Ti       1.98027      9.70201     11.24406        -0.213773      0.292406     -0.732878
Ti      13.68926      9.71338     11.23935        -0.448538      0.344709     -0.273348
Ti       5.80005      1.84501      2.42480         1.205749      0.084839     -2.421048
Ti       5.80575      1.88196     15.61949         0.220622      0.276031     -0.224126
Ti       5.81807     13.52194      2.27450         0.105608      0.240334     -0.597170
Ti       5.92570     13.59960     15.63595        -0.834544      0.291988     -0.276148
Ti       5.75289      1.89602      6.83702         0.717148      0.498581     -1.479146
Ti       5.81429     13.62876      6.84723        -0.093767     -0.174374     -2.238104
Ti       5.88328      1.98239     11.19905        -0.086919     -0.443392     -0.775585
Ti       5.81547     13.62871     11.16544         0.028404      1.285700     -0.808677
Ti       5.92811      5.75458      2.35016        -0.977644      0.002947     -0.589976
Ti       5.92486      5.78671     15.60113        -0.219683      0.052891     -2.083353
Ti       5.77656      5.81987      6.67738         1.444525      0.151120     -1.093049
Ti       5.89914      5.86894     11.12560        -0.017476     -0.124497      0.278401
Ti       5.78606      9.62392      2.38260         0.566416      0.632505     -0.967450
Ti       5.84590      9.70138     15.58665        -0.163063      0.207818     -0.945373
Ti       5.79340      9.77310      6.84855         0.631786     -0.019645     -0.733424
Ti       5.84454      9.76815     11.23408        -0.168808     -0.687765     -1.338562
Ti       9.69542      1.90264      2.43509         0.552835     -0.249029     -1.222853
Ti       9.75704      1.91047     15.66862        -0.159805     -0.051157     -0.818564
Ti       9.66158     13.61876      2.31876         0.508005     -0.107173     -0.762408
Ti       9.80619     13.69250     15.54472        -0.488530     -0.431345      0.413478
Ti       9.70813      1.96656      6.80468        -0.339276      0.379865     -1.825652
Ti       9.71652     13.69516      6.77390         0.344234     -0.209806     -0.785901
Ti       9.74933      1.92957     11.09690         0.591398      0.006081      0.428077
Ti       9.71273     13.63659     11.07841         0.162426      0.057836      0.223952
Ti       9.75376      5.79797      2.33526         0.422598     -0.256029     -0.883922
Ti       9.81018      5.73831     15.61642        -0.246845     -0.099559     -0.911830
Ti       9.68223      5.83212      6.81079        -0.249248      0.163251      0.180136
Ti       9.71433      5.77661     11.15706         0.489179     -0.130217     -0.993835
Ti       9.71826      9.67281      2.31964        -0.598441      0.413798     -0.575618
Ti       9.75019      9.64655     15.61275         0.057686      0.938905     -1.575802
Ti       9.70968      9.79649      6.84409        -0.142885     -0.894324     -1.884395
Ti       9.74523      9.61945     11.22812         0.482838      0.853037      0.260176
O       2.05762      1.93011      0.68855         0.007660     -0.060711     -0.481396
O       2.01197      2.09008     13.83240        -0.013430     -0.435199      0.487165
O       1.99381     13.63277      0.45419        -0.297264      0.179067      0.912378
O       2.20995     13.54163     13.78813        -0.313603      0.029467      0.654170
O      13.71440      1.97756      0.52942        -0.205030      0.006291      0.853476
O      13.79333      1.90675     13.89351        -0.327031      0.112059      1.159061
O      13.60004     13.47445      0.56726         0.271722      0.312003      0.573895
O      13.69876     13.68468     13.71787         0.022280     -0.101768      0.938535
O       1.82402      1.85890      4.98445         0.233530      0.057237      0.589264
O       1.97311     13.80733      5.05139        -0.588782     -0.388282      0.775562
O      13.64970      1.91984      4.91230        -0.113800     -0.043803      1.030678
O      13.56385     13.73826      4.89787         0.386766     -0.133975      0.629739
O       1.99753      1.90371      9.36696        -0.113836      0.005830      0.581068
O       1.95660     13.58043      9.29930        -0.009058      0.451683      0.401711
O      13.54245      1.92492      9.44588         0.364350     -0.037482     -0.427023
O      13.58136     13.64395      9.32381         0.010074      0.162732      0.720091
O       2.05277      5.79783      0.43064        -0.151940      0.181152      1.389161
O       1.92155      5.67180     13.70558         0.179940      0.435081      0.794711
O      13.51337      5.70539      0.48078         0.419430      0.215360      0.808972
O      13.66786      5.79313     13.82508        -0.079438     -0.060469     -0.400822
O       1.75227      5.84217      4.98733         0.363976      0.198116      1.026301
O      13.74879      5.86311      4.99473         0.169065     -0.064515      1.083827
O       2.07927      5.78802      9.29405        -0.231332     -0.130902      1.279595
O      13.73396      5.83358      9.42550         0.082465      0.078029     -0.555602
O       1.90594      9.69120      0.61483         0.026544     -0.308151      0.142465
O       1.90619      9.82030     13.74544        -0.050414     -0.251132     -0.315939
O      13.72515      9.88578      0.77540        -0.126744     -0.518709     -0.464097
O      13.67350      9.82887     13.88264         0.035470     -0.264071      0.508010
O       2.29177      9.89799      5.01127        -1.131190     -0.558090      2.049788
O      13.60606      9.78262      4.94400         0.322085     -0.216163      1.395830
O       1.88535      9.62478      9.47706         0.397227     -0.073200      0.445458
O      13.70191      9.66637      9.47884        -0.343046      0.135381      0.097629
O       5.90735      1.95270      0.57427        -0.405323     -0.263258      1.256848
O       5.77963      1.91343     13.80872         0.164494      0.134680      0.478290
O       5.85341     13.40038      0.44841         0.012031      0.489622      1.301053
O       5.84918     13.69325     13.84205        -0.144254     -0.350937      0.193356
O       5.89720      1.91856      4.99925        -0.107380     -0.011731      0.798151
O       5.93207     13.70272      4.97052        -0.228776     -0.069513      1.832356
O       5.96499      1.92665      9.41067        -0.338032     -0.112418     -0.398307
O       5.79170     13.70482      9.38489         0.043478     -0.121503      0.011462
O       5.78306      5.76508      0.50064         0.199652      0.313559      0.731337
O       5.95931      5.76704     13.69285        -0.090479      0.067051      1.934884
O       5.80974      5.85082      4.83233        -0.087724     -0.184616      1.298058
O       5.94132      5.83626      9.31354        -0.179238      0.047544      0.756189
O       5.72497      9.54120      0.56060         0.458726      0.267066      0.649019
O       5.89679      9.68894     13.79569        -0.019470     -0.022699      0.458212
O       5.74503      9.82632      5.06200        -0.160439     -0.064290      0.381746
O       5.85470      9.61413      9.43653        -0.077101      0.581412      0.795019
O       9.79910      1.89732      0.59981        -0.290442      0.103956      1.148278
O       9.83145      1.84556     13.87247        -0.139891      0.232082      0.421157
O       9.71457     13.66188      0.51641        -0.088710     -0.023375      0.847718
O       9.79850     13.76498     13.77807        -0.410879     -0.233442      0.305924
O       9.70592      2.12656      4.92116        -0.170063     -0.468490      1.414487
O       9.73420     13.59428      4.98152        -0.070916      0.253809      0.810290
O       9.78211      1.88596      9.36159         0.136783     -0.014388     -0.608741
O       9.70403     13.73787      9.31566         0.046041     -0.576996     -0.121918
O       9.77554      5.93059      0.50819         0.142783     -0.295869      0.822334
O       9.78877      5.61190     13.80529        -0.132155      0.169251      0.563546
O       9.74858      5.89837      5.06108        -0.120909     -0.242913      0.240498
O       9.64971      5.79772      9.36886         0.144098      0.232862      0.446560
O       9.61485      9.55399      0.49639         0.393033     -0.024490      0.945797
O       9.93481      9.73606     13.76676        -0.597160     -0.179036      1.500274
O       9.69023      9.79238      5.01737        -0.003021     -0.124292      0.943298
O       9.86597      9.62558      9.47691        -0.355284      0.237173      0.049735
O       3.95015      1.84558      2.88488        -0.572251      0.565005      0.072566
O       3.90924      1.96732     16.04861        -0.492116      0.040001     -0.114685
O       3.85351     13.64479      2.66975         0.325132     -0.107685     -0.045597
O       3.91132     13.48069     16.12509         0.183738      0.801563     -0.649541
O      15.57273      1.89947      2.74558         0.513750      0.414955      0.118648
O       0.02712      1.78364     16.18463         0.556001      0.731045     -0.485376
O       0.03034     13.67521      2.75843        -0.420577     -0.118689     -0.059803
O       0.03511     13.59983     15.82058        -0.129669      0.360760      0.197331
O       3.88105      1.83360      7.03343        -0.412542     -0.026048      0.466919
O       3.85839     13.65929      7.06964         0.052406      0.271053      0.780751
O      15.48843      1.85204      7.07564         0.993466      0.062363      0.523116
O      15.52694     13.61639      7.23987         0.296127     -0.006124     -0.620388
O       3.97372      1.98462     11.61905        -0.465955     -0.191527     -0.010929
O       3.87528     13.59696     11.51031         0.493005      0.327603      0.284094
O       0.14778      1.85332     11.62083        -1.092237      0.336068     -0.156664
O       0.02200     13.70640     11.55216        -0.088048     -0.479303     -0.027468
O       3.96020      5.89065      2.65007        -0.978893     -0.230319      0.429302
O       3.87197      5.78004     15.88469         0.354554      0.423632      0.066599
O       0.09157      5.72926      2.45884        -0.611327      0.443360      0.593956
O      15.51293      5.85112     15.94158         1.343659      0.095561      0.486548
O       3.98424      5.76987      7.07041        -1.574052      0.382554      0.180775
O       0.00088      5.87798      7.27711        -0.026252     -0.199157     -0.091766
O       3.96804      5.87973     11.44000         0.279315     -0.079840      0.268946
O       0.03229      5.85795     11.48385         0.049356     -0.043833      0.243128
O       3.96440      9.82539      2.80994        -0.814460     -0.266594     -0.216226
O       3.87676      9.73309     15.86463         0.239481     -0.215031      0.225676
O       0.03215      9.77885      2.91044         0.080064     -0.366522     -0.050296
O      15.55176      9.74799     16.06888         0.296493     -0.437985     -0.176619
O       3.82054      9.69976      7.40439         0.754148      0.261932     -0.260428
O      15.59859      9.72993      7.22809        -0.489225      0.286175     -0.474638
O       3.89260      9.58835     11.59600         0.372562      0.462063      0.111143
O       0.01565      9.58468     11.54309        -0.339397      0.456753      0.579235
O       7.73223      1.87669      2.78972         0.259989      0.135797      0.404774
O       7.79678      1.87639     15.89156        -0.449171      0.117280      0.391146
O       7.82692     13.59112      2.79208        -0.449959      0.021263     -0.243255
O       7.73808     13.76533     15.93621         0.878701     -0.488718      0.099975
O       7.83159      1.99269      7.10939        -0.476692     -0.531181      0.410686
O       7.77231     13.58992      7.20499         0.139894      0.186838      0.070205
O       7.90917      1.99577     11.52552        -0.511798     -0.772902      0.507171
O       7.72334     13.66174     11.51851         0.770427     -0.147539      0.248749
O       7.76176      6.00071      2.54583         0.383496     -0.428397      0.446291
O       7.79978      5.70039     16.00347         0.107657      0.734347     -0.123059
O       7.73355      5.75902      7.04054         0.231665      0.054149      0.360195
O       7.82875      5.87091     11.60542        -0.081857     -0.088767     -0.034817
O       7.85227      9.67423      2.81019        -0.572052     -0.309918     -0.107547
O       7.79870      9.73228     15.93433         0.128730     -0.697853      0.209273
O       7.70634      9.81565      7.17833         0.258943      0.365627      0.516653
O       7.80845      9.64704     11.59159         0.358543      0.692333      0.093622
O      11.63199      1.94020      2.78372         0.563489      0.152879      0.034699
O      11.71379      1.84511     16.07636         0.172641      0.652671      0.052405
O      11.68487     13.59604      2.65587         0.224603      0.322751      0.468134
O      11.64699     13.59740     15.86572         0.834415      0.208130      0.371705
O      11.69485      2.00065      7.06960         0.287799     -0.338622      0.476150
O      11.66932     13.74602      7.08580         0.081683     -0.640305      0.285829
O      11.74801      1.92005     11.64819        -0.325618      0.208997     -0.200348
O      11.69734     13.65067     11.45078         0.011336     -0.077755      0.076784
O      11.72702      5.72035      2.75139        -0.394055      0.639505     -0.096189
O      11.69690      5.79232     15.89660        -0.299936     -0.208974      0.492719
O      11.74149      5.92878      7.19301        -0.275562     -0.546417      0.104518
O      11.70651      5.79813     11.39084         0.245974     -0.277535      0.819104
O      11.64382      9.63425      2.78842         0.334805     -0.022004     -0.057001
O      11.67598      9.74917     16.07520         0.364812     -0.149287      0.015033
O      11.60445      9.63189      7.07870         1.412265      0.520350      0.687476
O      11.73722      9.74041     11.65331         0.023444      0.041737     -0.046140
O       2.04149      3.90884      2.83777         0.080367     -0.241037     -0.169887
O       1.95015      3.95572     15.90267        -0.604693     -1.098882      0.631891
O       2.06938      0.01165      2.71150        -0.841720     -0.815907      0.047500
O       2.04850     15.58388     15.88414         0.157107     -0.373574      0.208389
O      13.56703      3.93872      2.82065         0.961018     -0.912143     -0.298473
O      13.73353      3.85255     15.99697        -0.365480     -0.069609      0.244119
O      13.69358      0.01147      2.56150        -0.298297     -0.648773      0.427392
O      13.63813     15.57425     16.03234         0.120346     -0.932810      0.165511
O       1.90975      3.82990      7.08295        -0.006466      0.429907      0.372039
O       1.90037     15.55528      7.17344        -0.196629      0.675481      0.439074
O      13.70890      3.88049      7.10445        -0.052928      0.210214      0.326973
O      13.63226     15.53892      7.23277        -0.137017      0.609283     -0.543063
O       2.06053      3.89059     11.41372        -0.318591     -0.181456      0.440152
O       1.98076     15.51187     11.62036         0.562731      0.635179     -0.191857
O      13.77897      3.82020     11.55964        -0.309913      0.565700      0.183394
O      13.62413      0.01129     11.65889         0.464000     -0.253218     -0.363448
O       2.00227      7.83078      2.81697        -0.233799     -0.685442     -0.098471
O       1.90601      7.80926     15.79874        -0.241557     -0.471293      0.406459
O      13.63781      7.72745      2.70829         0.490932     -0.172185      0.247900
O      13.59730      7.74349     16.00609         0.091419      1.018733      0.189126
O       1.98429      7.77814      7.27552        -0.206346     -0.318899     -0.717386
O      13.62617      7.82626      7.14696         0.492494      0.131179      0.179990
O       1.97698      7.68572     11.73931         0.114264      0.400979     -0.307123
O      13.55708      7.74791     11.66236         0.628583      0.546870     -0.234692
O       1.95446     11.72393      2.67161        -0.299884      0.058447      0.282238
O       1.97107     11.64566     15.97307        -0.256189      0.136901     -0.000547
O      13.60330     11.64175      2.87684         0.551552      0.599220     -0.014357
O      13.70533     11.72513     15.97753        -0.534632     -0.233454     -0.012536
O       1.99081     11.67758      7.34642        -0.481373      0.026242     -0.454112
O      13.51475     11.77412      7.25294         0.399216     -1.215379     -0.475781
O       2.05564     11.68410     11.42370        -0.418902     -0.457393      0.557417
O      13.65509     11.77705     11.56969         0.316133     -0.959455      0.020285
O       5.84023      3.84486      2.59761        -0.053399      0.457070      0.831194
O       5.83348      3.91152     16.01214         0.059857     -0.601633     -0.051961
O       5.85197     15.47108      2.57915         0.108559      0.457460      0.526103
O       5.79242      0.00155     16.07834        -0.343708     -0.307070     -0.206056
O       5.77377      3.84039      7.16566         0.182204      0.134392      0.021510
O       5.86344     15.54455      7.23053         0.115985      0.596719      0.153684
O       5.98514      3.86881     11.40991        -0.266055      0.998828      0.434720
O       5.87452      0.03842     11.51402        -0.028004     -0.392196      0.485030
O       5.77795      7.81046      2.75814         0.105616     -0.310510      0.280465
O       5.81644      7.71088     16.01021         0.253011      0.285873     -0.133872
O       5.92844      7.87346      7.09832        -0.739048     -1.358266      0.193398
O       5.92782      7.84570     11.53370        -0.155298     -1.181537      0.427715
O       5.91962     11.70300      2.78418        -0.160301     -0.572412     -0.088453
O       5.94133     11.62603     15.97829        -0.310470      0.135672     -0.217769
O       5.71275     11.72449      7.21460         0.268638      0.068894      0.348769
O       5.82744     11.73862     11.48639         0.195580     -0.887590      0.504936
O       9.62549      3.92176      2.70873        -0.035090     -0.194555      0.148999
O       9.67153      3.83707     16.05972         0.664377      0.195980      0.087081
O       9.71410     15.54968      2.72580         0.211077      0.063750      0.335808
O       9.75417      0.03653     16.11801         0.006346     -0.988100     -0.288116
O       9.74848      3.85142      7.25538         0.305430      0.846371     -0.076398
O       9.81639     15.59134      7.11282        -0.587416      0.320046     -0.045701
O       9.76281      3.86131     11.41633         0.204063      0.079905      0.625589
O       9.81070     15.49153     11.47847        -0.396066      1.271957      0.436592
O       9.76438      7.63022      2.90393         0.161150      1.184105     -0.292595
O       9.77873      7.73739     15.91311        -0.166353     -0.011548      0.075345
O       9.60408      7.84948      7.23209         0.177898     -1.028758      0.132919
O       9.82659      7.73433     11.62359        -0.225114      0.148845      0.024469
O       9.73963     11.58664      2.58643         0.169564      0.056219      0.308374
O       9.67001     11.70478     15.96324         0.100569      0.040892     -0.051877
O       9.71153     11.64964      7.24816         0.337306      1.097706      0.364624
O       9.75603     11.73519     11.59049        -0.225650     -0.398059     -0.042215
