  # total energy = -7880.79427906 
CRSYTAL
PRIMVEC
    15.3600000000000000    0.0000000000000000    0.0000000000000000
     0.0000000000000000   15.3600000000000000    0.0000000000000000
     0.0000000000000000    0.0000000000000000    17.440000000000000
PRESSURE
-0.653857 -0.782297 -5.13234 -0.155963 -0.348776 -0.013029
PRIMCOORD
320 1
Pb       3.87143      3.78774      4.29830        -0.201020      0.625790     -0.126208
Pb       3.75665      3.86239     17.42792        -0.398051     -0.050795     -0.461573
Pb       3.84841     15.32459      4.30947        -0.134995     -0.326328     -0.287373
Pb       3.85733     15.27555     17.43924        -0.208803      0.023972     -0.906887
Pb       0.00888      3.85006      4.30901        -0.357783     -0.105157     -0.567366
Pb      15.25376      3.76021     17.35176         0.268593      0.246981     -0.533793
Pb      15.34321      0.01665      4.39773        -0.040850     -0.307133     -0.871787
Pb       0.14987      0.04117     17.37497        -0.185268     -0.444709     -0.114334
Pb       3.92065      3.82746      8.67897        -0.411241      0.062449     -0.100433
Pb       3.82428     15.33486      8.58528         0.013808      0.045489     -0.070093
Pb       0.14303      3.80728      8.73841        -0.265194     -0.333850     -0.347289
Pb       0.03223     15.28600      8.68425        -0.143096      0.140825     -0.450854
Pb       3.88075      3.89282     13.11816        -0.222801      0.089997     -0.638902
Pb       3.95945      0.10411     13.13820        -0.292553     -0.889964     -0.527558
Pb       0.00017      3.86953     12.98325        -0.627238     -0.004063      0.251774
Pb      15.33136     15.31375     13.09846        -0.263074      0.244529     -0.549311
Pb       3.78393      7.64946      4.36834         0.454325      0.054119     -0.242944
Pb       3.89534      7.71083     17.39449         0.147735     -0.381709     -0.273067
Pb      15.21987      7.63280      4.33396         0.095266     -0.103278     -0.786805
Pb       0.10468      7.56458      0.02661        -0.663389      0.101245     -0.574927
Pb       3.73150      7.71258      8.60946         0.381916     -0.295553      0.299871
Pb      15.33322      7.73366      8.64139        -0.044320     -0.083542     -0.020381
Pb       3.88781      7.72000     13.04709        -0.417839      0.387598     -0.443332
Pb      15.26002      7.68654     12.98606         0.173070     -0.113765      0.176846
Pb       3.93192     11.45506      4.41542         0.098125     -0.142594     -0.367555
Pb       3.68324     11.57423      0.01419        -0.033100     -0.055761     -0.585042
Pb      15.27167     11.37384      4.42306        -0.402756      0.281561     -0.795023
Pb       0.04042     11.45572      0.04128        -0.154442      0.048578      0.114744
Pb       3.87145     11.44653      8.63921        -0.233907      0.005054      0.274331
Pb       0.02386     11.62736      8.67331        -0.172832     -0.190120     -0.113509
Pb       3.76513     11.53739     13.07295         0.117923     -0.363472     -0.503812
Pb      15.26152     11.49039     12.96102        -0.133817     -0.235305      0.061729
Pb       7.59009      3.91418      4.24676         0.554224     -0.282508      0.161252
Pb       7.60842      3.78145      0.05457         0.563229      0.046809     -0.444409
Pb       7.57560     15.25669      4.39300         0.436581     -0.037989     -1.048886
Pb       7.82037     15.29169      0.00772        -0.322187     -0.023987      0.076093
Pb       7.66772      3.86545      8.63441         0.437166     -0.181278      0.089996
Pb       7.67621      0.11470      8.73201        -0.007225     -0.295943     -0.038375
Pb       7.61684      3.73314     12.98454         0.460864      0.362695     -0.693432
Pb       7.64554     15.24461     13.11444         0.167797     -0.367394     -0.456629
Pb       7.70027      7.75779      4.39849        -0.267399     -0.361906     -0.253726
Pb       7.63387      7.67505     17.39114        -0.053731     -0.176970     -0.437237
Pb       7.74643      7.53212      8.74649        -0.344965      0.518722     -0.568469
Pb       7.77792      7.70618     13.13656        -0.105606     -0.134171     -0.867463
Pb       7.63642     11.48557      4.35654         0.272545      0.213808     -0.875990
Pb       7.67120     11.42145     17.36317        -0.130235      0.245625     -0.181312
Pb       7.68033     11.55593      8.74876         0.071434     -0.335712     -0.253424
Pb       7.55378     11.47105     13.02837         0.255136      0.366820     -0.116274
Pb      11.52378      3.92442      4.33190        -0.336056     -0.179061     -0.032191
Pb      11.44767      3.82025     17.41842        -0.251120     -0.162351     -0.591727
Pb      11.56597      0.02707      4.43704        -0.261320     -0.256514     -0.670119
Pb      11.56237      0.03861      0.02589        -0.482483     -0.295143     -0.122740
Pb      11.59372      3.67519      8.68563        -0.583335      0.369091     -0.469473
Pb      11.52776      0.09706      8.72744        -0.397828     -0.361230     -0.430843
Pb      11.48180      3.83345     12.93713        -0.099122      0.221817      0.096021
Pb      11.49469     15.35083     13.12499         0.005445      0.018637     -0.585027
Pb      11.51818      7.62895      4.43393        -0.175873      0.023003     -0.660399
Pb      11.47515      7.74085     17.35081         0.032200     -0.059941     -0.154420
Pb      11.52781      7.66447      8.68823        -0.315420      0.026298     -0.543387
Pb      11.58064      7.61582     13.14704        -0.073627     -0.004070     -0.822937
Pb      11.45166     11.56861      4.30989        -0.144568     -0.260100     -0.550771
Pb      11.53936     11.51437     17.41356         0.056491     -0.196811      0.414805
Pb      11.48629     11.52256      8.66904         0.005331     -0.102326     -0.495036
Pb      11.50310     11.57660     13.12554         0.169690     -0.486173     -0.769521
Ti       1.84482      1.89293      2.33207        -0.360237     -0.416691     -0.235573
Ti       1.90807      1.85596     15.28973        -0.870254      0.786448     -0.601815
Ti       1.90423     13.35237      2.44936        -0.653699      0.385176     -1.211556
Ti       1.82464     13.38433     15.19458         0.941259     -0.253565      0.792444
Ti      13.33769      1.84611      2.25555        -0.110088      0.425274      0.983490
Ti      13.28583      1.82656     15.40840         0.706618      1.129695     -1.182471
Ti      13.47766     13.37588      2.30073        -0.291357     -0.548701     -0.306732
Ti      13.47106     13.39566     15.43877        -0.105649     -0.420539     -1.296574
Ti       1.83871      1.89192      6.51230         0.531784     -0.669124      0.488318
Ti       1.92197     13.36549      6.55750         0.557107      0.599269     -0.794874
Ti      13.42043      1.87214      6.59946        -0.501823      0.576442      0.612178
Ti      13.35532     13.40898      6.62250         0.241195     -0.079083      0.215402
Ti       1.87727      1.93472     11.06284        -0.026752     -0.526137     -0.252150
Ti       1.84152     13.42525     11.04713         0.506139     -0.137343      1.583458
Ti      13.36701      1.90360     10.97162         0.013108      0.052749     -0.065966
Ti      13.34662     13.43914     10.93022         0.432016     -0.291717     -0.716495
Ti       1.86527      5.71694      2.30719         0.320327      0.805575     -0.533110
Ti       1.84222      5.67884     15.37972        -0.358225      0.218960     -0.147351
Ti      13.37717      5.64292      2.15114         0.270983      0.646050     -0.296490
Ti      13.35603      5.76656     15.35766         0.695163     -0.399624      0.086496
Ti       1.85622      5.66651      6.54550         1.329076      0.350127     -0.823838
Ti      13.46054      5.73905      6.69794        -1.476940     -0.710536      0.361570
Ti       1.87234      5.73633     11.02145         0.259728      0.409190     -0.712083
Ti      13.39161      5.75593     10.86223        -0.380262      0.281188      1.108659
Ti       1.86782      9.60714      2.38870         0.397237     -0.444123     -1.283717
Ti       1.92030      9.52788     15.44994        -0.449392      0.340287     -2.560564
Ti      13.31371      9.48742      2.30764         0.251556      0.453984     -0.607413
Ti      13.47911      9.58306     15.39118         0.542419     -0.464259     -0.553974
Ti       1.79795      9.58967      6.66247         1.545988     -0.145811      0.267434
Ti      13.36590      9.58532      6.59028        -0.497929      0.062829     -0.071618
Ti       1.80420      9.56909     11.03684         0.763392      0.110051      0.166452
Ti      13.32774      9.55123     10.92750        -0.387378      0.169968      0.281401
Ti       5.65245      1.84385      2.25553         0.948851      0.061217      0.113944
Ti       5.68813      1.99466     15.34853         0.363439     -1.671124      0.946763
Ti       5.66911     13.41419      2.10289         1.410113     -0.339691      1.280444
Ti       5.71491     13.42031     15.41843         0.260384     -0.536392     -1.192599
Ti       5.73154      1.90986      6.57359        -0.127181     -0.542225      0.168833
Ti       5.81071     13.42083      6.66906        -0.837985     -0.288017     -0.299259
Ti       5.69294      1.82559     11.03133         1.003963      0.502604     -0.715260
Ti       5.73699     13.42010     10.96025        -0.369794     -0.294638     -0.021559
Ti       5.77054      5.76815      2.35720         0.030537      1.754772     -1.051730
Ti       5.77631      5.64696     15.38011        -0.344479      1.887725     -0.182464
Ti       5.74383      5.74589      6.64824        -0.249070      0.368441     -0.546699
Ti       5.71947      5.69859     10.97940         0.276247      0.529028     -1.246418
Ti       5.73430      9.55969      2.23545        -0.426396     -0.398583      0.751718
Ti       5.70659      9.59367     15.32917         0.403228      0.673478      0.012443
Ti       5.76807      9.53698      6.74400        -0.639570      0.279303     -1.332001
Ti       5.70047      9.60426     11.00302        -0.260186     -0.596983     -0.935568
Ti       9.53032      1.89222      2.39859        -0.167483     -0.001667     -0.783956
Ti       9.49654      1.78883     15.27594         0.422132      1.026706      0.035740
Ti       9.61618     13.46600      2.20886        -0.789535     -0.568317      0.470449
Ti       9.58385     13.34820     15.45868        -0.515121      0.776727     -0.561392
Ti       9.51103      1.84707      6.58005         0.588372      0.801607      1.310221
Ti       9.59173     13.40973      6.61735        -0.131477      0.191502      0.097421
Ti       9.54438      1.84854     10.99876        -0.065363      0.743597     -0.604524
Ti       9.64403     13.38038     10.97577        -0.973606      0.262495     -0.550402
Ti       9.59345      5.76245      2.22912        -0.303928     -0.149413      0.995639
Ti       9.56347      5.58433     15.26301         0.292382      0.469349      0.552101
Ti       9.61024      5.70261      6.60520         0.301510      0.184944      0.062265
Ti       9.53058      5.78110     10.92480         0.062933     -1.368476      0.530898
Ti       9.49862      9.55637      2.32931         1.231965      1.282694     -0.773054
Ti       9.62015      9.57033     15.33676        -0.483285     -0.641692     -0.544347
Ti       9.55026      9.56158      6.62140         0.184185     -0.397641      0.008663
Ti       9.55750      9.61207     10.96930         0.391377     -0.416751     -0.425258
O       1.73941      1.99458      0.53566         0.679095     -0.482800      1.036557
O       1.86539      1.92219     13.46758         0.203708     -0.068558      0.926084
O       1.80255     13.27934      0.59420         0.355930      0.455276      1.216625
O       1.75077     13.36384     13.38646         0.266682      0.121574      1.500467
O      13.17852      1.89699      0.46280         0.491029     -0.230670      0.518952
O      13.28325      1.77372     13.58526         0.036064     -0.091425      1.587353
O      13.53860     13.33915      0.49329        -0.266507      0.450067      1.042041
O      13.51696     13.39499     13.52487        -0.623517      0.000738      2.264918
O       1.85989      1.86942      4.68093        -0.353130      0.163478      1.438782
O       1.99388     13.44412      4.72588        -0.343887     -0.151202      1.586746
O      13.41102      1.91634      4.80261         0.039434     -0.155557      0.855261
O      13.25639     13.42777      4.84804         0.389396      0.183375      0.171363
O       1.83477      1.97168      9.24825         0.006014     -0.245118      1.489375
O       1.64462     13.37911      9.31080         0.579748      0.152643     -0.378735
O      13.30156      1.93075      9.13740         0.178987     -0.345172      1.630229
O      13.41185     13.44002      9.06612        -0.022248     -0.337788      1.736411
O       1.84627      5.78771      0.41630         0.509597     -0.413398      2.024636
O       1.63415      5.65578     13.59756         0.844876      0.003801      0.388801
O      13.43977      5.62686      0.34916        -0.431893      0.371803      1.658962
O      13.37140      5.81326     13.57378         0.219595      0.010296      0.341001
O       1.90424      5.71889      4.69231        -0.426163     -0.413928      1.938073
O      13.26116      5.73443      4.93403         0.847774     -0.158226     -0.210351
O       1.91144      5.63259      9.21700        -0.164553      0.185182      0.727784
O      13.27062      5.85961      9.09382         0.778379     -0.377848      0.379583
O       1.94027      9.71440      0.50441        -0.258706     -0.686595      1.539129
O       1.93580      9.60497     13.54445         0.024901     -0.282529      2.331435
O      13.53822      9.50991      0.50365        -0.639694      0.026827      1.148433
O      13.43073      9.58593     13.52397        -0.224365      0.034531      1.998036
O       1.85021      9.77896      4.90824         0.048140     -0.812100      0.103376
O      13.32685      9.56978      4.75995         0.250953     -0.357480      1.463477
O       1.85210      9.58582      9.24101        -0.333316     -0.319506      0.117440
O      13.30460      9.40165      9.11423         0.369429      0.435377      0.925628
O       5.59971      1.93812      0.48475         0.172796     -0.011378      0.009164
O       5.71470      1.94925     13.57570        -0.201879      0.070450      0.278104
O       5.74460     13.50488      0.32770        -0.605591     -0.029082      0.836201
O       5.81983     13.43126     13.53201         0.006050     -0.218189      1.434731
O       5.82376      1.86691      4.76540        -0.745562      0.190502      1.191135
O       5.85490     13.47384      4.80747        -0.389172     -0.208962      1.645656
O       5.65763      1.75148      9.25369         0.033535      0.052208      0.153764
O       5.64436     13.46818      9.11647         0.356383     -0.229940      1.844593
O       5.84142      5.94701      0.45940        -0.360259     -0.639109      1.603055
O       5.67286      5.58084     13.59214         0.420927      0.094181      0.290148
O       5.70458      5.74118      4.81057         0.244617     -0.126582      1.399509
O       5.71640      5.75421      9.08058         0.044567     -0.451134      1.972686
O       5.76199      9.37645      0.44870         0.045777      0.466170      0.779782
O       5.65617      9.73283     13.50950         0.247071     -0.770373      0.891801
O       5.66503      9.56896      4.88301         0.159459      0.322109      1.486500
O       5.63460      9.58522      9.17346         0.273262      0.257038      1.226868
O       9.67208      1.89547      0.57607        -0.336059      0.081536      0.850483
O       9.64176      1.77797     13.48217        -0.388075     -0.075006      0.839263
O       9.59022     13.45614      0.37949        -0.015827      0.106426      0.814160
O       9.46338     13.58544     13.66523         0.478396     -0.731618      0.632644
O       9.43147      1.89828      4.84722         0.210248     -0.430410     -0.378300
O       9.60163     13.56029      4.81330        -0.336017     -0.163640      1.486204
O       9.60156      1.84934      9.15735        -0.165980      0.113363      1.309086
O       9.58591     13.28454      9.17867         0.287959     -0.336822      0.673619
O       9.61769      5.65492      0.46114        -0.179827      0.181424      0.601620
O       9.61926      5.57498     13.48899        -0.504189      0.585809      0.647612
O       9.57143      5.81125      4.81555         0.246862     -0.077735      0.430563
O       9.29544      5.73111      9.10245         0.959971      0.164972      1.661066
O       9.68936      9.57634      0.51650        -0.697621      0.059212      0.475715
O       9.59548      9.46336     13.51015        -0.088072      0.401003      1.770192
O       9.61761      9.60652      4.80885        -0.347192     -0.444742      0.715165
O       9.59152      9.54496      9.07759        -0.107542      0.491345      2.072691
O       3.75881      1.81679      2.64614        -0.092502      0.539771      0.163741
O       3.76275      1.92889     15.76402         1.231693      0.430448     -0.044275
O       3.76901     13.45756      2.67451         0.893474      0.134614     -0.278709
O       3.73402     13.40203     15.79569        -0.474310     -0.254727     -0.357661
O      15.22140      1.95067      2.71669         0.295726     -0.147709     -0.286082
O       0.02753      1.85050     15.72936        -1.209509     -0.175175      0.070290
O      15.32264     13.28020      2.80288        -0.397258      0.357297      0.067423
O       0.02854     13.55272     15.73567        -0.073824     -0.279746     -0.216952
O       3.76494      1.82482      6.93684         0.318130      0.228433     -0.277980
O       3.81271     13.42289      7.03414        -0.564028      0.168407     -0.259140
O      15.26515      1.93013      7.08719         0.818640     -0.443121     -0.670604
O       0.06781     13.39127      7.05501        -0.905993     -0.205703     -0.432621
O       3.86172      1.92470     11.39164        -1.635301     -0.315287      0.354383
O       3.87869     13.41052     11.49026        -0.643248      0.149700     -0.764235
O      15.23945      1.83172     11.46601         0.348276      0.256117     -0.550361
O      15.18918     13.38176     11.40524         0.820279      0.098058     -0.393790
O       3.87718      5.87328      2.79162        -1.085716     -0.122621     -0.836915
O       3.87398      5.75931     15.64747        -0.598384     -0.626791      0.471255
O      15.35650      5.67825      2.61336        -0.906239     -0.183625      0.114094
O      15.27772      5.73682     15.81057         0.854022     -0.147831     -0.041693
O       3.79649      5.61543      6.87866        -0.235283     -0.214719      0.298927
O       0.00695      5.58160      7.00465        -0.133589      0.322342     -0.100924
O       3.78542      5.52817     11.40691         0.368436      0.838734      0.107672
O      15.32487      5.82680     11.31787        -0.438822     -0.158935     -0.198327
O       3.81791      9.43890      2.69557        -0.595181      0.162812     -0.121200
O       3.86085      9.58564     15.79329        -0.950392      0.078184      0.020499
O      15.22247      9.55693      2.82153         1.209637      0.352460     -0.102411
O       0.01191      9.56332     15.77815         0.092515     -0.186436     -0.084791
O       3.79761      9.51651      7.20108        -0.886311      0.308538     -0.742968
O      15.30605      9.59697      7.03100        -0.134449     -0.312397     -0.076310
O       3.79737      9.61144     11.45778         0.595884     -0.209948     -0.224542
O      15.25585      9.60942     11.39171         0.152291     -0.332628     -0.459391
O       7.52454      1.95342      2.70708         0.128880      0.152243     -0.537177
O       7.63519      1.93264     15.79469        -0.646447     -0.373336     -0.275904
O       7.67155     13.42474      2.61017        -1.284289     -0.232662     -0.184925
O       7.60361     13.37991     15.88767         0.826492      0.275855     -0.339886
O       7.64658      1.89635      7.05384        -0.690166     -0.457660     -0.171934
O       7.62658     13.34592      7.18616         0.356199      0.136845     -0.822939
O       7.64508      1.79918     11.41225         0.209874      0.285568     -0.055073
O       7.80309     13.31680     11.30618        -1.878487      0.442273      0.240804
O       7.66312      5.77397      2.76869         0.165798     -0.165578     -0.560463
O       7.69426      5.63371     15.80874         0.063082      0.603281     -0.399022
O       7.68348      5.71888      7.00304        -1.241560     -0.057875     -0.182399
O       7.57186      5.64553     11.46714         0.499803      0.318961     -0.348396
O       7.61120      9.64710      2.75627        -0.158199      0.535076     -0.256016
O       7.63288      9.66377     15.71907         0.846207     -0.238178     -0.175686
O       7.61843      9.56439      7.01147         0.091828      0.123702     -0.064317
O       7.69033      9.63707     11.36126        -0.797149     -0.601099      0.116594
O      11.38933      1.95352      2.87665         1.005864     -0.674396     -0.580494
O      11.40188      1.89319     15.75901         0.829800     -0.586970     -0.051963
O      11.44382     13.43868      2.68804         0.500772      0.390126     -0.318871
O      11.50057     13.28533     15.72926         0.442436      0.643709     -0.244044
O      11.46911      1.79830      7.06128        -0.014743      0.058973     -0.531161
O      11.44307     13.37124      7.07372        -0.048718      0.048208     -0.361651
O      11.46468      2.04467     11.42128         0.328501     -0.836120     -0.475997
O      11.49599     13.27251     11.42578        -0.134755      0.421617      0.128055
O      11.48232      5.75807      2.72110        -0.173316      0.041768     -0.575634
O      11.47357      5.83117     15.69398        -0.443668     -0.523180      0.095465
O      11.50911      5.73868      6.99182        -0.397128      0.036991      0.172940
O      11.52290      5.78393     11.35892        -1.097705     -0.029552     -0.448665
O      11.44599      9.52221      2.67614         0.317993     -0.114238      0.045316
O      11.59204      9.70455     15.87061        -0.692196     -0.667804     -0.777884
O      11.51958      9.52675      7.03631        -0.229736      0.057369     -0.329469
O      11.44248      9.47099     11.43899        -0.098016      0.215657     -0.472173
O       1.88265      3.83385      2.75851         0.471788     -0.165501     -0.455606
O       1.86739      3.77241     15.83774         0.291234      0.493129     -0.257947
O       1.78128     15.30813      2.74379        -0.067301      0.624121     -0.325470
O       1.94653      0.01120     15.70826        -0.022227     -0.965676     -0.044852
O      13.30384      3.79711      2.59291         0.156427      0.068222      0.173265
O      13.44205      3.81301     15.75288        -0.554220     -1.003929     -0.250151
O      13.35169     15.31434      2.73049         0.191137      0.400445     -0.349131
O      13.38551     15.26485     15.92253        -0.149202      0.745888     -0.547355
O       1.88983      3.69203      7.07805        -0.158838      0.837140     -0.630407
O       1.80902     15.32429      7.03795         0.127050      0.252827     -0.383029
O      13.32896      3.73303      7.15455         0.317774      0.594855     -0.828473
O      13.38097     15.24427      7.01816         0.281411      1.309452     -0.223759
O       1.77150      3.85390     11.45312         0.098525     -0.876636     -0.298383
O       1.84402     15.31358     11.49385         0.108043      0.284535     -0.660519
O      13.34819      3.89128     11.40195         0.682260     -0.487245     -0.662397
O      13.22809     15.34862     11.34744         0.164439     -0.230519     -0.291909
O       1.73684      7.67145      2.82856         0.389982      0.000891     -0.597124
O       1.89290      7.58457     15.71744         0.167028      0.966615      0.253508
O      13.41639      7.53691      2.66557         0.064588      0.238666      0.089140
O      13.46876      7.65467     15.83631        -0.421654      0.758288     -0.450543
O       1.90311      7.55871      6.98621        -0.532838      0.415882     -0.149204
O      13.38120      7.62998      7.04625         0.790242      0.355383     -0.409277
O       1.94300      7.70138     11.47936        -0.037245     -1.017853     -0.278032
O      13.34951      7.67527     11.45475         0.453508     -0.301065     -0.484236
O       1.98484     11.45215      2.80565        -0.382041     -0.341351     -0.119497
O       1.81800     11.48192     15.83351         0.372033      0.605622     -0.735122
O      13.31360     11.46324      2.72050         0.144211      0.354861     -0.197016
O      13.52410     11.51558     15.93355         0.035044      0.053670     -0.969116
O       1.94565     11.47197      7.06026        -0.358208      0.343273     -0.064921
O      13.37822     11.50896      6.91987         0.212522     -0.798443      0.292335
O       1.91740     11.43748     11.46727        -0.451181      1.162423     -0.414516
O      13.27985     11.44879     11.32602         0.294096      0.196675     -0.186246
O       5.61946      3.95142      2.69733         0.193276     -1.648914     -0.448191
O       5.81498      3.83914     15.86316        -0.750142     -0.906657     -0.101088
O       5.61955     15.29963      2.54644         0.305728      0.320871      0.102745
O       5.56667     15.26361     15.59437         0.351388      2.138118      0.477280
O       5.76799      3.74245      7.22649        -0.352447      0.136263     -1.385389
O       5.65959     15.31811      7.05957         0.649089      0.499118     -0.494354
O       5.76550      3.74808     11.34887        -0.064269      0.334076      0.159130
O       5.80328     15.28888     11.50604        -0.310630     -0.178162     -0.262842
O       5.89988      7.74762      2.83263        -0.709776     -0.696978     -0.533048
O       5.73342      7.71874     15.72339         0.429376     -0.705331     -0.378937
O       5.61810      7.63417      7.06268         0.449733     -0.616596     -0.342024
O       5.78199      7.63578     11.29147        -0.512343     -0.052309      0.589500
O       5.54770     11.52413      2.63264         0.607056     -0.148657     -0.400518
O       5.73727     11.54517     15.87572        -0.343853     -1.005276     -0.336533
O       5.57519     11.47717      7.07008         0.814053      0.421064     -0.393913
O       5.76535     11.49672     11.45812         0.000271      0.457095     -0.696327
O       9.53092      3.84972      2.73933        -0.074609      0.361896     -0.280622
O       9.58681      3.73001     15.70906         0.020803      0.428501     -0.017061
O       9.37559      0.00404      2.64064         0.704736     -0.097966     -0.029755
O       9.50778     15.33817     15.82896         0.432542     -0.265210     -0.203375
O       9.56121      3.81063      6.97058         0.056768     -0.637278     -0.015239
O       9.51489     15.29896      7.21680         0.031774     -0.192162     -1.143517
O       9.52235      3.80850     11.40378        -0.032739      0.367952     -0.326623
O       9.61363     15.33251     11.30055         0.461417     -0.737499      0.117511
O       9.47256      7.75072      2.61901         0.071206     -1.927240      0.175475
O       9.59063      7.68247     15.64935        -0.089156      0.180580      0.093242
O       9.50228      7.64138      7.05146         0.292631      0.110946     -0.284054
O       9.46221      7.57327     11.46974        -0.040930      0.546701     -0.556630
O       9.55308     11.53875      2.77387         0.012081      0.131691     -0.353559
O       9.61624     11.48935     15.86791        -0.415057     -0.423851     -0.596554
O       9.54555     11.42493      6.88190         0.014955      1.276872      0.516406
O       9.53035     11.41544     11.56129         0.935765      0.492840     -0.718686
