  # total energy = -7879.39394083 
CRSYTAL
PRIMVEC
    15.2000000000000000    0.0000000000000000    0.0000000000000000
     0.0000000000000000   15.2000000000000000    0.0000000000000000
     0.0000000000000000    0.0000000000000000    17.000000000000000
PRESSURE
8.01532 7.85038 3.77217 0.338448 -0.123012 0.088034
PRIMCOORD
320 1
Pb       3.75437      3.77014      4.14758        -0.439061     -0.174048      0.563158
Pb       3.93051      3.86971     16.95887        -0.508502     -0.160691      0.239757
Pb       3.67872      0.07980      4.30060         0.111809      0.088114     -0.548666
Pb       3.81234     15.17946     16.98823        -0.543216     -0.351552     -0.008831
Pb       0.01708      3.91656      4.26250         0.096407     -0.219251     -0.100800
Pb      15.16698      3.66157      0.08396        -0.616550      0.631957     -0.647445
Pb       0.03842      0.11876      4.28338        -0.210249     -0.173198     -0.468762
Pb      15.08981     15.13718      0.00155         0.658360      0.524098      0.149353
Pb       4.05437      3.69605      8.48031        -1.053350      0.308563      0.319633
Pb       3.77863     15.07077      8.69943         0.356768     -0.384162     -0.265843
Pb       0.11737      3.78162      8.48222        -0.382096     -0.329691      0.103462
Pb      15.17318     15.03782      8.55501        -0.367895      0.643653     -0.097892
Pb       3.72253      3.83340     12.73009         0.249679     -0.059407      0.007687
Pb       3.61573      0.03572     12.80133         0.306467     -0.330709      0.008390
Pb      15.15499      3.77320     12.66472         0.233503      0.208483      0.827843
Pb      15.19499      0.13419     12.81971         0.009466     -0.876929      0.118804
Pb       3.80135      7.46359      4.20322        -0.536198      0.535553     -0.019493
Pb       3.86822      7.56332      0.03748        -0.525512      0.198179      0.104127
Pb      15.17668      7.60526      4.15452         0.273568     -0.326199      0.014485
Pb      15.13750      7.55283     16.88380        -0.242667     -0.033932      0.622554
Pb       3.85698      7.65876      8.40673         0.067451      0.029533      0.058280
Pb      15.19856      7.49748      8.37529        -0.227574      0.730303      0.684717
Pb       3.71457      7.53381     12.65482         0.090400      0.326962      0.586977
Pb      15.16871      7.57892     12.59669        -0.010164     -0.189014      0.501517
Pb       3.64009     11.28610      4.25639         0.437958      0.816450     -0.521565
Pb       3.87277     11.30724      0.26499         0.006854      0.689294     -0.598099
Pb      15.18204     11.40760      4.20041         0.211983      0.238416     -0.273057
Pb       0.02127     11.40655      0.07121        -0.048369      0.030748     -0.121463
Pb       3.87048     11.34749      8.55111         0.085124      0.435629     -0.315633
Pb      15.13192     11.36094      8.46555         0.194591     -0.343736      0.067899
Pb       3.61496     11.27735     12.89554         0.165879      0.286718      0.071227
Pb      15.15524     11.29534     12.80369         0.037853      0.130911     -0.151859
Pb       7.45093      3.62059      4.17593         0.406101      0.393984      0.536116
Pb       7.54434      3.74727     16.89152         0.155095      0.203031     -0.016284
Pb       7.57078     15.09505      4.30865        -0.021557      0.321091     -0.349706
Pb       7.64642     15.10610     16.98569        -0.242942      0.191333     -0.018994
Pb       7.64618      3.79359      8.48524        -0.200003     -0.245602     -0.018185
Pb       7.64324     15.14933      8.38539        -0.238847      0.348106      0.483610
Pb       7.56337      3.89109     12.77219        -0.348862     -0.260740      0.139437
Pb       7.63092      0.07075     12.70722        -0.801748     -0.114384      0.838524
Pb       7.70254      7.44516      4.31606         0.192025      0.286088     -0.405460
Pb       7.48583      7.71311     16.89151         0.766316      0.120842      0.552450
Pb       7.58951      7.62361      8.46032         0.011816     -0.144559     -0.106188
Pb       7.54665      7.65636     12.76257        -0.359651     -0.164620     -0.258354
Pb       7.53132     11.19246      4.32074         0.350297      0.694095     -0.580071
Pb       7.76370     11.45691     16.88901        -0.794004     -0.743910      0.411861
Pb       7.59504     11.44835      8.50606        -0.277401     -0.197437      0.100007
Pb       7.51219     11.30323     12.67449         0.532319      0.142158      0.963880
Pb      11.29770      3.74434      4.25145         0.541690      0.509398     -0.108923
Pb      11.33937      3.66315      0.02246         0.615752      0.711928     -0.029236
Pb      11.38189     15.13708      4.27016         0.409570      0.090727     -0.186970
Pb      11.40968     15.06143     16.96593         0.001117      1.013113      0.473437
Pb      11.43191      3.82620      8.49742         0.000988     -0.359968      0.096771
Pb      11.40178      0.02986      8.26895        -0.081626     -0.196921      1.012433
Pb      11.32469      3.83217     12.78443         0.238852     -0.426957     -0.487116
Pb      11.46974      0.03258     12.61233        -0.306606      0.118600      0.863017
Pb      11.40450      7.63463      4.20515        -0.134287     -0.663496     -0.380000
Pb      11.25185      7.49105     16.89534         0.605618      0.277318      0.556762
Pb      11.31784      7.52833      8.43915         0.100991      0.288450      0.033226
Pb      11.34664      7.56862     12.64859         0.328842      0.280616      0.366140
Pb      11.32072     11.19060      4.29645         0.149744      1.079891     -0.677333
Pb      11.37682     11.58597     16.88483        -0.058276     -1.122547      0.583009
Pb      11.50466     11.44026      8.51868        -0.679126     -0.405661      0.198868
Pb      11.39930     11.48950     12.60204        -0.492588     -0.606852      0.679367
Ti       1.83100      1.94021      2.09540         0.851042     -0.236061      1.125545
Ti       1.92793      2.01534     14.99275        -1.329471     -2.085754      0.420443
Ti       1.87283     13.35489      2.25726         0.424550     -0.247841     -0.859518
Ti       1.84959     13.34858     15.10888         0.742317      0.176726      0.222252
Ti      13.30712      1.94495      2.28428        -0.720694     -0.008224      0.243924
Ti      13.29768      1.89960     15.03273         0.591128      0.543279     -0.203041
Ti      13.22963     13.31795      2.30517         0.197818      0.086602      0.542994
Ti      13.32339     13.29817     14.94400        -0.095204      0.111598     -0.366495
Ti       1.95705      1.82721      6.64415        -1.495971      1.301948     -0.736301
Ti       1.83315     13.34184      6.49512         0.552550     -1.284063     -0.820059
Ti      13.35190      1.94960      6.41018         0.455641     -0.556887      0.193093
Ti      13.25836     13.24815      6.42305        -0.530962      0.268092      1.229605
Ti       1.91008      1.86099     10.75389        -0.025958     -0.429194      0.014017
Ti       1.83012     13.24392     10.77556        -0.664621      0.058199     -0.306603
Ti      13.35157      1.86470     10.76330        -1.434648      0.607394     -0.886259
Ti      13.26763     13.24463     10.73650         0.599978      1.061246      0.313376
Ti       1.88640      5.69965      2.14691        -0.303445     -0.444785      0.729280
Ti       1.86727      5.69274     15.04009        -0.259289      0.590915     -0.778291
Ti      13.25016      5.74647      2.19533         0.005789     -1.198937     -0.491245
Ti      13.27763      5.69030     14.88379         0.100930     -0.425248      1.406983
Ti       1.91826      5.72309      6.55292        -0.091227     -1.348561     -0.647526
Ti      13.30624      5.68880      6.41747        -0.882752     -0.023427     -0.537667
Ti       1.83286      5.65048     10.67390        -0.316949     -0.283070      0.038977
Ti      13.19683      5.61050     10.69485         1.204489      0.486416      1.379007
Ti       1.88492      9.49163      2.13217         0.887281      0.026083     -0.002290
Ti       1.91875      9.55015     15.13394        -0.742794     -0.261654      0.227363
Ti      13.28146      9.51863      2.18408         0.133191     -0.379521     -0.180257
Ti      13.29978      9.51047     15.01528         0.386791     -0.020321     -1.299991
Ti       1.88270      9.54879      6.47143        -0.046246      0.011511      0.474668
Ti      13.27073      9.43832      6.49615         0.140795      0.261445      0.767000
Ti       1.85631      9.48269     10.64635         0.009248     -0.285491     -1.033243
Ti      13.26150      9.46546     10.76155         0.134720     -0.363261     -1.910991
Ti       5.63873      1.85066      2.13629        -0.492516     -0.178034      0.150381
Ti       5.62879      1.85051     14.95438         1.436950      0.434486      0.440247
Ti       5.67639     13.27469      2.27083        -0.948068     -0.328695      0.586894
Ti       5.63885     13.31666     14.95575         0.081392     -0.441638     -0.071773
Ti       5.67928      1.78137      6.55074         0.451736      1.165497     -0.468657
Ti       5.66188     13.24326      6.37746        -0.365042      0.199383      0.694572
Ti       5.72877      1.83810     10.79334        -0.743773      0.468607      0.050903
Ti       5.59775     13.19765     11.01592        -0.261770      0.456707     -1.435286
Ti       5.71965      5.70494      2.33572         0.489549      0.655259     -1.539215
Ti       5.67933      5.78060     15.05701         0.189214     -0.460261     -1.228906
Ti       5.66766      5.70398      6.47130         1.158308     -0.346489      0.458883
Ti       5.63572      5.67990     10.71936         0.644996      0.850843      0.622397
Ti       5.73381      9.49497      2.28610        -0.280341      0.203757     -0.121182
Ti       5.62371      9.57767     15.02754         0.740446      0.124804     -0.434721
Ti       5.71873      9.51426      6.33080        -0.031572     -0.066955      1.478812
Ti       5.64659      9.47908     10.76163        -0.651947     -0.039249      0.279443
Ti       9.43405      1.87862      2.28069         0.631645     -0.921120      0.495486
Ti       9.51248      1.90378     14.98308        -0.485929     -0.172559     -0.299032
Ti       9.42297     13.31686      2.28697         0.696781     -0.376495      0.098029
Ti       9.48498     13.34028     14.89560        -0.195126     -0.611300      1.114945
Ti       9.54981      1.88666      6.37470        -1.321041     -0.153104      1.912305
Ti       9.44928     13.21186      6.46420         0.699017      0.339552     -0.947007
Ti       9.48012      1.88631     10.69740         0.992115      1.062688     -0.448199
Ti       9.41306     13.38428     10.77207         0.168976     -1.678501     -0.403660
Ti       9.50406      5.63269      2.21395        -0.074000      0.803136      0.459658
Ti       9.50534      5.70064     14.93570        -0.152199     -0.265688      0.907670
Ti       9.44438      5.60395      6.48056         0.320376      0.857304     -0.321011
Ti       9.42756      5.69492     10.72736        -0.283325      0.258164     -0.471925
Ti       9.43710      9.50902      2.15764         0.502605     -0.517143     -0.948827
Ti       9.62571      9.46271     14.81821        -2.001453      0.895226      1.242701
Ti       9.48765      9.51777      6.45656        -0.066003     -0.657775      1.028678
Ti       9.46748      9.48911     10.68839         0.055768      0.491825      1.123468
O       1.89140      1.91137      0.35818         0.035164      0.495747     -0.289499
O       1.75058      1.89478     13.18803         0.775396     -0.092564      0.247370
O       1.90338     13.36321      0.43084        -0.249900     -0.287472      0.658880
O       1.88843     13.50408     13.33645        -0.372679     -0.694743     -0.258878
O      13.29154      1.90615      0.49457        -0.002057      0.096201      0.224736
O      13.37590      1.99595     13.22727        -0.562661     -0.461374      0.473104
O      13.08199     13.26391      0.53282         0.640456      0.452412     -0.264771
O      13.39426     13.33325     13.17914        -0.474306     -0.379340     -0.165540
O       1.85690      1.85610      4.82172         0.222635     -0.350789      0.449081
O       1.86097     13.25255      4.63810         0.083334      0.564875      1.431680
O      13.42309      1.98113      4.62194        -0.055164     -0.312943      0.660960
O      13.21099     13.21891      4.70258         0.396300     -0.099558     -1.071136
O       1.89404      1.85100      8.98537        -0.062776      0.025552     -0.221137
O       1.80263     13.30203      8.96797         0.238162     -0.168623      0.163978
O      13.21345      2.00173      8.97941         0.082779     -0.432282      0.089050
O      13.15252     13.23701      8.95768         0.621224      0.307614      0.287997
O       1.96699      5.58603      0.41397        -0.148132      0.005287     -0.573722
O       1.85745      5.74402     13.22040         0.268420     -0.069415      0.400993
O      13.13223      5.75155      0.40772         0.365700      0.001288      0.873680
O      13.11834      5.73962     13.12127         0.672953     -0.416024      0.201034
O       1.79265      5.67379      4.77194         0.433918      0.052181     -0.014540
O      13.20373      5.79253      4.62010         0.568163     -0.108054      0.814130
O       1.81048      5.59086      8.88714         0.435339      0.502150      0.123080
O      13.16894      5.60562      8.96169         0.232736      0.123228     -1.156786
O       1.86450      9.55526      0.34077        -0.027166      0.080550      0.718449
O       1.99005      9.50381     13.34807        -0.312285     -0.301205     -0.915250
O      13.43530      9.46780      0.44181        -0.414321      0.176834     -0.559604
O      13.32869      9.54273     13.17565         0.198314      0.024982      0.438339
O       2.00747      9.66511      4.72023        -0.895245     -0.743568     -0.628083
O      13.16326      9.48393      4.70164         0.453621     -0.137408     -0.173265
O       1.84844      9.53246      8.83755         0.310766     -0.206594      0.278644
O      13.30298      9.58407      8.88754        -0.074715     -0.657808      1.734250
O       5.68392      1.89540      0.33472         0.023474      0.139822      0.730155
O       5.66865      1.86663     13.21564         0.032272      0.320187     -0.917446
O       5.64551     13.20263      0.52717         0.152161      0.473336     -0.932506
O       5.73066     13.31161     13.17371        -0.494097      0.108037      0.040610
O       5.62027      1.88701      4.75898        -0.010119     -0.243797      0.070566
O       5.68756     13.20773      4.60570         0.123381      0.569568      0.560536
O       5.72004      1.88226      8.99480        -0.218229      0.020166      0.152398
O       5.58821     13.19609      9.15388         0.040668     -0.226033      0.907674
O       5.80784      5.78299      0.48940        -0.578928     -0.351424      0.758494
O       5.69573      5.82557     13.26111        -0.072562     -0.064611     -0.009376
O       5.61227      5.76240      4.70762         0.471408     -0.057865     -1.038587
O       5.76221      5.82868      8.97377        -0.442248     -0.301379     -0.751770
O       5.68993      9.53631      0.49115        -0.063879     -0.203035     -0.544295
O       5.55012      9.41323     13.22137        -0.031652      0.092954      0.767985
O       5.71796      9.56209      4.58550        -0.076239     -0.450005     -0.311945
O       5.67888      9.70384      9.00543        -0.318516     -0.383403     -1.036454
O       9.34607      1.83737      0.54266         0.461034      0.065415     -1.364521
O       9.50477      1.97450     13.22090         0.269809     -0.145191     -0.481155
O       9.54054     13.45980      0.45417        -0.128044     -0.517448      0.815565
O       9.54385     13.36371     13.17719        -0.289372     -0.169621     -0.799321
O       9.34672      1.92800      4.65879         0.077076      0.148292     -0.789719
O       9.35529     13.11178      4.66526         0.141039      0.488648      0.430909
O       9.52993      1.83823      8.90782        -0.232509     -0.089429      0.671840
O       9.52601     13.28549      8.99252        -0.639309      0.321978      0.281958
O       9.45663      5.79784      0.46133         0.280533     -0.400768     -0.516695
O       9.51931      5.66387     13.17884        -0.131176     -0.126330     -0.656927
O       9.37290      5.52703      4.69216         0.295979      0.243392      0.644751
O       9.37452      5.68780      8.93463         0.242157      0.549604      0.128214
O       9.45523      9.51121      0.36880         0.013042     -0.374020      0.756036
O       9.52423      9.45804     13.06396        -0.203318      0.186951     -0.152362
O       9.46845      9.63963      4.67316         0.212845     -0.570434     -0.012700
O       9.52567      9.46269      8.94001        -0.443459      0.014830     -0.384480
O       3.70562      2.12839      2.50894         1.104732     -0.692780     -0.037768
O       3.80745      1.80191     15.26855        -0.739329      0.322051      0.135784
O       3.77690     13.15137      2.47545        -0.424128     -0.106793      0.633643
O       3.79186     13.37701     15.32257         0.092934      0.140568      0.167905
O       0.00163      1.81851      2.56809         0.273355      0.153340      0.032098
O      15.19783      1.97372     15.43867         0.006074     -0.136872     -0.135694
O      15.19457     13.41035      2.65309        -0.640536      0.019211     -0.096314
O      15.12383     13.32290     15.48442         0.581075     -0.642202     -0.118267
O       3.75819      1.90144      6.92781         1.234616     -0.433676      0.238601
O       3.81288     13.36147      6.92643        -0.530917     -0.377424     -0.549512
O      15.17884      1.89804      6.97232        -0.526135     -0.416441     -0.385990
O      15.09361     13.32192      6.86483         1.043052     -0.050786     -0.129996
O       3.79244      1.89485     11.12024         0.118828     -0.072152      0.047541
O       3.63076     13.33029     11.16916         1.939763     -0.264997      0.323606
O      15.16672      1.82148     11.15909         0.911319      0.328943     -0.476157
O      15.17987     13.29733     11.16612        -1.030480     -0.261728     -0.393962
O       3.79092      5.61487      2.60054         0.126352      0.183965      0.030086
O       3.80882      5.69025     15.32106        -0.661689      0.435238      0.492343
O      15.18894      5.81826      2.57496         0.053401     -0.265407     -0.122462
O      15.16230      5.56945     15.38258         0.179128      0.474066     -0.236312
O       3.86534      5.66409      6.82494        -1.542462      0.561088      0.501509
O      15.16455      5.66654      6.87660         0.057491     -0.348381     -0.217255
O       3.74610      5.80811     11.03989        -0.066775     -0.401107     -0.027316
O      15.15304      5.60651     11.08268         0.271539      0.215949     -0.151676
O       3.79282      9.63806      2.59693        -0.627896     -0.128017     -0.310485
O       3.73360      9.57796     15.52819         1.416730     -0.449514     -0.244706
O       0.13058      9.32647      2.52362        -2.524616      0.323490      0.604948
O      15.19339      9.69509     15.37443        -0.374386     -0.588054     -0.131441
O       3.86558      9.54470      6.67641        -1.108752     -0.131458      0.801954
O      15.18649      9.39729      6.86130        -0.270840      0.546776     -0.521388
O       3.70035      9.39277     10.93781        -0.003346     -0.127133      0.476749
O      15.18095      9.53550     11.04289        -0.396259     -0.002701      0.504363
O       7.53059      1.69224      2.51692        -0.676554      0.396217      0.558205
O       7.59593      2.12943     15.19478        -0.087184     -0.855123      0.426834
O       7.53534     13.54252      2.51357         0.995962     -0.016257      0.131370
O       7.59338     13.27021     15.42699         0.430049      0.233081     -0.639194
O       7.53651      1.88423      6.86225         0.938387      0.162586     -0.073038
O       7.59641     13.31892      6.87828        -1.015056     -0.345554     -0.077191
O       7.59225      2.01843     11.15094         0.399199     -0.061866     -0.073348
O       7.48375     13.18177     11.23728         1.035108      0.491908     -0.628248
O       7.68498      5.75288      2.71820        -2.101426     -0.294293     -0.302281
O       7.59873      5.68236     15.35452         0.297926      0.182476     -0.274228
O       7.57204      5.73703      6.89350        -0.090694     -0.290952     -0.181739
O       7.51689      5.77295     11.17071         1.052528     -0.561262     -0.034053
O       7.58221      9.32729      2.58488         0.361766      0.284146      0.278519
O       7.60657      9.51978     15.32293        -0.432603     -0.192610     -0.442826
O       7.58856      9.59471      6.79088         0.210689     -0.208766      0.013893
O       7.47916      9.61950     11.01175         2.277492     -0.425730      0.306035
O      11.35863      1.98356      2.76266         0.544259     -0.298702     -0.634087
O      11.44618      1.90432     15.55319        -1.075639     -0.558339     -0.985184
O      11.37171     13.23090      2.73114        -0.038658     -0.042842     -0.239593
O      11.44481     13.43119     15.35000        -1.218101     -0.394811     -0.411392
O      11.39135      1.81568      6.68728        -0.026915      0.601960     -0.099713
O      11.34982     13.17950      6.84795         0.007054      0.617632     -0.291231
O      11.37865      1.86256     11.10337        -0.290682      0.081176      0.132047
O      11.31739     13.37012     11.09379         0.566119     -0.114626      0.106715
O      11.35270      5.62777      2.71078        -0.075632     -0.094324     -0.390784
O      11.41653      5.69213     15.37897        -0.630798     -0.051116     -0.429627
O      11.34776      5.79007      6.84245         0.098323     -0.590530     -0.161984
O      11.38746      5.67589     11.07874        -0.499845      0.202094     -0.102380
O      11.40986      9.59079      2.42933        -0.217638     -0.311759      0.666140
O      11.39532      9.50438     15.17679         0.797014     -0.135786      0.527094
O      11.38518      9.49024      6.90837        -0.251424     -0.321710     -0.589454
O      11.36370      9.41755     11.07116         0.251943      0.574625     -0.167225
O       1.83811      3.79257      2.70286        -0.659584      0.464521     -0.494228
O       1.96025      3.79312     15.30087         0.282182      0.593860      0.293679
O       2.05929      0.04466      2.55131        -0.291595      0.234703      0.335798
O       1.81456      0.06436     15.51414         0.124112     -0.253579     -0.512314
O      13.41471      3.84537      2.54596        -0.243167     -0.257188      0.159466
O      13.29085      3.78622     15.45150        -0.458599      0.363632     -0.347409
O      13.29008      0.05721      2.68189        -0.591946     -0.899291     -0.007287
O      13.37702      0.00879     15.34463        -0.379161      0.014370      0.028317
O       1.87266      3.73855      6.92790         0.222070      0.547922     -0.140513
O       1.81483     15.13260      7.04941         0.238734      0.408357     -0.555215
O      13.22127      3.81296      6.68199        -0.120146     -0.280103      0.456110
O      13.18650     15.15437      6.81959         0.619839      0.398592     -0.393624
O       1.92803      3.70142     11.15124        -0.316575      1.531036     -0.245665
O       1.85209     15.15404     11.11490         0.011736      0.659887     -0.001159
O      13.39822      3.75577     11.17273        -1.179114      0.255542     -0.473113
O      13.25050      0.00207     11.18219         0.436907     -0.686256     -0.646387
O       1.95616      7.55239      2.47126         0.665375      0.633155      0.409937
O       1.84885      7.54857     15.51124         0.212583      0.550005     -0.573108
O      13.21157      7.55570      2.57061        -0.047907      1.700081      0.386069
O      13.33205      7.60469     15.29959         0.135869     -0.052133     -0.148087
O       1.79456      7.58145      6.68177         0.915552      0.461277      0.772759
O      13.31488      7.52037      6.86953        -0.306551      1.099053      0.036361
O       1.71535      7.51336     10.97842         0.453061      0.950290      0.079983
O      13.32133      7.59230     11.11587        -0.092539     -0.265568     -0.517347
O       1.70008     11.42267      2.55379         0.430544     -0.587345     -0.104187
O       1.97689     11.44167     15.34737        -0.544295      0.452105      0.096036
O      13.40734     11.38300      2.50165         0.292452     -0.018731      0.455275
O      13.16736     11.43122     15.29581         0.344700     -0.038083      0.228713
O       1.76180     11.44014      6.76181         0.355707      0.024304      0.340177
O      13.28478     11.33628      6.96347         0.179257      0.293395     -1.016578
O       1.84974     11.32627     11.12066         0.241448      0.341041      0.229228
O      13.21126     11.38836     11.07339         0.146817      0.210411      0.117674
O       5.68190      3.83591      2.60527         0.639676     -0.901334     -0.278902
O       5.57905      3.86697     15.32982         0.564659     -0.769805      0.034657
O       5.40756      0.06233      2.68260         0.408678     -0.277366     -0.541858
O       5.73458     15.16342     15.37054         0.367183      0.833323     -0.031781
O       5.72511      3.81140      6.87584        -0.020283     -0.226645     -0.011562
O       5.69489     15.18195      6.98925        -0.161003     -1.072621     -0.586138
O       5.64410      3.85882     11.16450        -0.117653     -0.552501     -0.166214
O       5.68406      0.03143     11.21374         0.122474     -0.772884     -0.405428
O       5.51444      7.63612      2.60362         0.406497     -1.397944      0.195880
O       5.56679      7.67861     15.40630         0.541038     -0.433894      0.103834
O       5.72458      7.64990      6.84381        -0.185377     -0.009207     -0.019121
O       5.79311      7.66796     11.09428        -0.707036     -1.281926      0.054659
O       5.83463     11.35297      2.56994         0.027692      0.894406      0.158181
O       5.69361     11.43400     15.29006        -0.273849     -0.208048      0.215860
O       5.73877     11.40778      6.80587        -0.247574      0.381504      0.011641
O       5.54984     11.27728     11.39296        -0.498783      1.673343     -0.622685
O       9.41076      3.69580      2.62480        -0.258626      1.357559     -0.225170
O       9.56997      3.77936     15.26433         0.149586      0.740455      0.633936
O       9.66123     15.17002      2.75291        -0.865073     -0.084588     -0.272747
O       9.41509     15.19218     15.30085         0.097468      0.539523      0.092463
O       9.47963      3.78633      7.03992         0.105517     -0.702439     -1.150003
O       9.37021     15.18620      6.67392         0.674829      0.053951      0.199811
O       9.65502      3.86393     10.92351        -0.914247     -1.319804      0.653609
O       9.37217      0.03398     11.15874         0.102166     -0.099759     -0.392573
O       9.48217      7.60074      2.60538         0.740672     -0.221412      0.296685
O       9.55761      7.59784     15.19085        -0.348292     -0.193154      0.160750
O       9.40190      7.57687      6.75599         0.218873      0.617928      0.034263
O       9.53559      7.56112     11.10993        -0.707388      0.823490     -0.296463
O       9.41936     11.37906      2.54373        -0.420345      0.612561     -0.103120
O       9.52398     11.38516     15.41214         0.388592      0.822964     -1.152776
O       9.50749     11.39697      6.87110        -0.329806     -0.626676      0.114145
O       9.45889     11.40901     11.16913         0.265950      0.009988     -0.541755
