  # total energy = -7880.87032754 
CRSYTAL
PRIMVEC
    15.3600000000000000    0.0000000000000000    0.0000000000000000
     0.0000000000000000   15.3600000000000000    0.0000000000000000
     0.0000000000000000    0.0000000000000000    17.440000000000000
PRESSURE
0.20897 0.778205 -4.17166 -0.051278 -0.280144 0.027757
PRIMCOORD
320 1
Pb       3.91882      3.81595      4.40007        -0.244638     -0.143710     -0.413625
Pb       3.91415      3.81142      0.02015        -0.531857      0.231048     -0.372530
Pb       3.77058      0.02298      4.33822         0.349641      0.096629     -0.453549
Pb       3.74162     15.30012     17.35168        -0.096991      0.041330      0.366094
Pb       0.07837      3.76683      4.37075        -0.492296      0.187965     -0.458330
Pb       0.07427      3.91980      0.00529         0.225385     -0.186212     -0.211275
Pb       0.10839      0.03653      4.35623        -0.329140     -0.349384     -0.312109
Pb      15.23483      0.03075     17.37861         0.095812     -0.290964     -0.210526
Pb       3.75183      3.76767      8.72446        -0.235572      0.176771     -0.365614
Pb       3.81225     15.34036      8.61089        -0.065049     -0.091864      0.254581
Pb      15.11162      3.96947      8.63668         0.308361     -0.138114      0.051309
Pb      15.20418     15.31330      8.73169         0.216547     -0.216547     -0.183810
Pb       3.85411      3.64209     13.09064         0.072244      0.415116      0.020756
Pb       3.75298      0.01031     12.92953         0.031991     -0.095263      0.480132
Pb       0.03211      3.78749     13.03877         0.266467     -0.371204     -0.011916
Pb      15.30175     15.24185     13.07421         0.107872      0.053306     -0.294198
Pb       3.84406      7.66939      4.32509         0.194228     -0.131477      0.062043
Pb       3.81641      7.59887      0.00008        -0.296549      0.124845     -0.436085
Pb       0.15392      7.82130      4.32564        -1.064183     -0.513550     -0.499411
Pb      15.27277      7.69728      0.03003        -0.177404      0.020489     -0.031909
Pb       3.79461      7.72654      8.62028        -0.063912     -0.322260      0.508652
Pb      15.33661      7.61772      8.63604        -0.157246     -0.270573     -0.106661
Pb       3.86913      7.55430     13.02216        -0.014134      0.232460      0.487503
Pb      15.33083      7.64240     13.10763         0.329991     -0.067911     -0.071953
Pb       3.81254     11.57847      4.25457        -0.090094     -0.331713      0.438411
Pb       3.96625     11.62245     17.41036        -1.066453     -0.387823      0.163666
Pb       0.10056     11.55060      4.34233        -0.534695      0.098646     -0.005172
Pb      15.26469     11.53382     17.33752         0.166377      0.109184      0.275510
Pb       3.87448     11.50947      8.63397        -0.034446     -0.164318      0.121908
Pb      15.32821     11.45777      8.72449         0.155888      0.316782     -0.453895
Pb       3.92688     11.41441     13.10166        -0.133465     -0.114661     -0.177146
Pb       0.19862     11.54561     13.03156        -1.022963     -0.092587      0.327490
Pb       7.69960      3.77484      4.27404        -0.039556      0.123033      0.560986
Pb       7.69302      3.85205      0.03359         0.291982     -0.279741     -0.360876
Pb       7.68425     15.35091      4.42008        -0.273206      0.010414     -0.227081
Pb       7.52392      0.05697     17.31466         0.292864     -0.170482      0.299137
Pb       7.54033      3.88971      8.75458         0.500960     -0.513895     -0.389556
Pb       7.66121     15.31205      8.78028         0.508800     -0.430007     -0.240287
Pb       7.88055      3.91672     13.03063        -0.347516     -0.312468     -0.056228
Pb       7.69431      0.11702     13.00041         0.117394     -0.145498     -0.232220
Pb       7.74078      7.54302      4.33344        -0.131315      0.139699     -0.155498
Pb       7.58710      7.77335      0.00215         0.147959      0.097138     -0.288089
Pb       7.73355      7.63467      8.70457        -0.416948      0.121076     -0.164300
Pb       7.67588      7.73169     13.06825        -0.418527     -0.101974     -0.027843
Pb       7.64230     11.48236      4.34443        -0.013542     -0.121202     -0.199267
Pb       7.70184     11.57593     17.34209         0.180954     -0.211470      0.176549
Pb       7.59726     11.60264      8.60478         0.271558      0.023521      0.408211
Pb       7.79614     11.53894     12.96525        -0.582852      0.112354     -0.076015
Pb      11.44740      3.76689      4.30482         0.356082      0.103115      0.099410
Pb      11.72151      3.90856      0.13771        -0.708371     -0.654488     -0.469793
Pb      11.60190     15.27700      4.37324        -0.202346     -0.000607     -0.367545
Pb      11.25134     15.25536      0.04067         0.652524      0.300484     -0.283474
Pb      11.43568      3.87232      8.67030        -0.075320     -0.260446     -0.287564
Pb      11.49304      0.04145      8.76823        -0.310544     -0.203892     -0.536735
Pb      11.57943      3.72168     13.03315        -0.634408     -0.212523      0.046461
Pb      11.51691     15.30419     13.07433        -0.203129      0.343093     -0.027586
Pb      11.56077      7.55565      4.37524        -0.114548     -0.166727     -0.558166
Pb      11.48521      7.70392     17.41196         0.163233     -0.076461      0.086944
Pb      11.58061      7.72384      8.69241        -0.139587     -0.513352     -0.319473
Pb      11.34494      7.59912     13.14480         0.223398      0.080053     -0.206588
Pb      11.55827     11.43230      4.27021        -0.051047      0.324078     -0.203155
Pb      11.39796     11.42729     17.35987         0.247459      0.291306      0.041706
Pb      11.56097     11.42581      8.61176        -0.465747      0.686444      0.298932
Pb      11.55877     11.48191     13.04447         0.236766     -0.064231     -0.319621
Ti       1.90625      1.97047      2.23590         0.241692     -0.125043     -0.198961
Ti       1.89717      1.93243     15.36618        -0.038632     -0.508440     -0.271629
Ti       1.83567     13.43144      2.30924         0.633778      0.238938     -1.389554
Ti       1.81780     13.37705     15.38474         0.463235     -0.278498      0.155403
Ti      13.40146      1.85232      2.37480         0.178298      0.178059     -0.675311
Ti      13.42092      1.97951     15.34390        -0.340908     -1.437457     -0.508108
Ti      13.46001     13.36752      2.31895        -0.314934      0.157435     -1.914935
Ti      13.27070     13.46250     15.44628         0.858819      0.110525     -1.301347
Ti       1.81653      1.85789      6.77462         0.199065      0.093044      0.535044
Ti       1.93180     13.41572      6.77534        -0.964671     -0.809843     -1.479628
Ti      13.39984      1.87177      6.64802        -0.951956      0.620717     -0.815656
Ti      13.44335     13.43954      6.66024        -0.237091     -0.539747     -0.643970
Ti       1.88189      1.84696     10.91017        -0.020824     -0.058614     -0.134615
Ti       1.88966     13.31369     10.91087        -0.165998      1.519345      0.324668
Ti      13.46595      1.87004     11.04117        -0.326433      0.124951     -0.020357
Ti      13.38281     13.49522     10.99879         0.199977     -1.732686     -0.686749
Ti       1.93974      5.79324      2.39723        -0.561002     -1.237175     -1.234896
Ti       1.86437      5.72758     15.37926         1.059483     -0.461647     -0.802918
Ti      13.46101      5.72355      2.31742         0.241028      0.162812      0.756296
Ti      13.43671      5.69890     15.36790        -0.059358      1.176744     -1.288924
Ti       1.86105      5.65752      6.57607         0.402629      0.436195     -0.518430
Ti      13.30757      5.77007      6.60743         0.898343     -0.173604     -2.055520
Ti       1.94193      5.67950     11.05227        -0.554713     -0.314420     -0.259368
Ti      13.37471      5.69718     11.24022         0.073763      0.051087     -2.121981
Ti       1.84436      9.60708      2.31364        -0.364704      0.601581     -2.018395
Ti       1.81159      9.48380     15.47538        -0.089246      1.422994      0.439220
Ti      13.30788      9.52313      2.31509         0.876721      0.418792      0.059326
Ti      13.34578      9.53141     15.31852         0.551719      0.732219      0.474546
Ti       1.81484      9.53736      6.70822         0.416914      0.836647     -0.461568
Ti      13.32201      9.63508      6.56081         0.630878     -0.708569     -1.163968
Ti       1.83238      9.50608     11.02691         0.926994      0.116589     -0.778319
Ti      13.36037      9.45812     11.05967        -0.563404      1.393535      0.669861
Ti       5.75349      1.90901      2.28460        -0.902432     -1.206713     -0.640439
Ti       5.68318      1.97002     15.41106         0.704849     -0.249431     -1.708525
Ti       5.73600     13.36067      2.30405        -0.140220      0.442713     -0.466243
Ti       5.70776     13.48756     15.29976        -0.311914      0.310338     -0.065076
Ti       5.74096      1.81338      6.72815         0.416199      1.096795     -1.923687
Ti       5.73351     13.40181      6.60231         0.404982     -0.049776     -0.547294
Ti       5.72256      1.88422     10.93745         0.233340      0.101407      0.798825
Ti       5.64473     13.42696     11.08963         1.858755     -0.310533     -1.217916
Ti       5.70347      5.72343      2.29167         0.318318      0.243813      0.538057
Ti       5.77764      5.80180     15.41631        -1.134189     -0.750253     -0.768254
Ti       5.70901      5.68575      6.69953         0.198136      0.508679     -1.667287
Ti       5.65088      5.67186     10.97921         1.127542      0.437116      0.731844
Ti       5.64816      9.55499      2.31634         0.254101      1.075422      0.303613
Ti       5.65542      9.66007     15.41280         0.375161     -0.749133     -1.636835
Ti       5.73412      9.53105      6.59026        -0.449308      0.592159     -0.039462
Ti       5.69123      9.59216     11.04180         0.210903     -0.251906      1.254504
Ti       9.51716      1.82735      2.36252         1.248216      0.281867     -0.714734
Ti       9.60074      1.90644     15.52160         0.547916      0.226467     -1.513925
Ti       9.50730     13.40764      2.34408         0.544854     -0.690859     -1.406707
Ti       9.47555     13.42109     15.26996         0.818247      0.415912     -0.427981
Ti       9.51550      1.85455      6.70527         0.904095      0.119089     -0.919154
Ti       9.60146     13.36128      6.66035         0.696873      0.438986      0.203819
Ti       9.59784      1.91208     10.95719         0.914814     -0.386320     -0.930802
Ti       9.57589     13.41738     11.02066        -0.787814      0.264278     -0.324638
Ti       9.58264      5.70277      2.24552         0.644647      0.272963     -0.578256
Ti       9.58148      5.72587     15.51632        -0.040778     -0.720125     -0.621695
Ti       9.56848      5.73311      6.63491        -0.259450     -0.672768     -0.566321
Ti       9.53923      5.75383     11.04350         0.233103     -0.549729     -0.059271
Ti       9.46247      9.55197      2.36572         0.552795     -0.120379     -1.363418
Ti       9.54141      9.49223     15.33617        -0.823809      1.019769     -0.548876
Ti       9.48073      9.52296      6.63209         0.956287      1.085801     -1.548640
Ti       9.52748      9.53670     11.00211         0.373358      0.716515      0.571482
O       1.95480      1.92304      0.42515        -0.317117      0.233577      0.920738
O       1.96913      2.04896     13.56787        -0.191435     -0.830956      0.747355
O       1.71077     13.53051      0.53290         0.697865     -0.251114      0.967803
O       1.83765     13.22274     13.57098        -0.041936      0.665238      0.181426
O      13.47407      1.88885      0.58653        -0.025694      0.097325      0.449901
O      13.36354      1.92452     13.49019         0.152445      0.281501      1.465459
O      13.30876     13.43902      0.44776         0.470716      0.226698      0.420585
O      13.37697     13.53095     13.59536         0.227449     -0.168606      0.881856
O       1.85324      1.80221      5.02367         0.203180      0.391077     -0.478126
O       1.82060     13.22449      4.94138         0.326100      0.777260      0.352940
O      13.40548      1.96740      4.84389         0.002917     -0.519312      0.639683
O      13.44565     13.32653      4.85461        -0.243271      0.327501      0.389727
O       1.93130      1.84774      9.07801        -0.179560      0.029893      1.164750
O       1.89323     13.37925      9.13769         0.118039     -0.014573     -0.343650
O      13.50400      1.86565      9.23291        -0.391823     -0.008392      0.500863
O      13.45939     13.45792      9.19211         0.012533      0.171150      0.211219
O       1.87082      5.59443      0.56011         0.125193      0.549748      0.712208
O       2.00646      5.75301     13.57779        -0.683577      0.041181      0.459376
O      13.55225      5.84454      0.51544        -0.334070     -0.853967      0.262631
O      13.32565      5.71037     13.51850         0.438305     -0.215036      0.584080
O       2.05084      5.66266      4.73945        -0.608412      0.340648      1.850286
O      13.27667      5.70469      4.78111         0.139809      0.243107      1.090926
O       1.91403      5.68951      9.27492        -0.064422      0.089664      0.352176
O      13.32403      5.83941      9.28618         0.234140     -0.328662      1.424851
O       1.80831      9.60134      0.50462         0.146969     -0.274165      0.868347
O       1.73423      9.55244     13.70162         0.198882     -0.047617     -0.165662
O      13.29255      9.50291      0.55032        -0.193481     -0.152545     -0.651392
O      13.30815      9.63182     13.57037         0.265533     -0.473974     -0.172936
O       1.80161      9.61664      4.87371         0.068462     -0.312219      1.011195
O      13.32829      9.61162      4.72493         0.012975     -0.036618      1.113482
O       1.91203      9.59953      9.22695        -0.486811     -0.339849      0.672161
O      13.20156      9.42877      9.25026         0.799979      0.144451      1.153395
O       5.66384      1.88522      0.45133         0.409867      0.311866      1.511288
O       5.64364      1.74132     13.55202         0.311183      0.883820      1.312628
O       5.74302     13.29809      0.48446         0.231274      0.252246      0.881618
O       5.74340     13.49991     13.50341        -0.364656     -0.132984      1.090589
O       5.82366      1.81413      4.85454        -0.496253      0.078920      1.314817
O       5.74285     13.36076      4.82347        -0.040805      0.311300      0.604113
O       5.72879      1.91793      9.15838        -0.086004      0.085736     -0.034719
O       5.78105     13.31313      9.27523        -0.308641      0.351560      0.056905
O       5.65540      5.84456      0.50990        -0.053437     -0.359002      0.910990
O       5.65422      5.67218     13.62172         0.788554      0.488969      0.840994
O       5.74394      5.83744      4.83607        -0.583298     -0.343685      1.351750
O       5.78107      5.53023      9.20954        -0.169988      0.473267     -0.451344
O       5.64652      9.53352      0.53008         0.353498      0.199011     -0.020606
O       5.60619      9.66090     13.53065         0.318176     -0.126655      1.916218
O       5.67358      9.61574      4.80066         0.089094     -0.549953      1.432276
O       5.67931      9.64414      9.33706         0.121222      0.254156     -1.448070
O       9.51577      1.76242      0.56801        -0.111486      0.101222      0.486498
O       9.68964      1.81029     13.66778        -0.347709      0.675736      0.833018
O       9.55499     13.37778      0.43581        -0.158176      0.217940      1.717248
O       9.58676     13.60038     13.46953        -0.408017     -0.560341      0.860478
O       9.59427      1.89445      4.85735        -0.224226     -0.317913      0.731161
O       9.74190     13.40924      4.87922        -0.295343     -0.154957      0.035745
O       9.61689      1.96463      9.12872         0.067400     -0.092844      0.634164
O       9.40980     13.47288      9.25418         0.392760     -0.270929     -0.140772
O       9.64819      5.61816      0.43041        -0.202069      0.492713      0.744042
O       9.51057      5.75442     13.65530        -0.146813     -0.426981      1.321349
O       9.75813      5.75313      4.86948        -0.690935      0.276749      0.297467
O       9.47096      5.67106      9.26424         0.101081      0.369056     -0.556540
O       9.42136      9.48389      0.48193         0.335425      0.153955      1.081800
O       9.49711      9.48639     13.53800         0.067866      0.112395      0.960720
O       9.46908      9.46877      4.77407         0.544367      0.329239      1.507379
O       9.50586      9.44045      9.22637         0.135268      0.153072      0.295138
O       3.79919      1.94312      2.73446         1.063621      0.065905      0.090004
O       3.85621      2.05134     15.74025        -1.398003     -0.709563      0.208209
O       3.79578     13.22369      2.63947         0.325997      0.516767     -0.047054
O       3.76374     13.39029     15.92823         1.308610      0.003307     -0.990479
O       0.05369      1.92610      2.79626         0.001822     -0.155093     -0.255084
O      15.35161      1.83249     15.69734        -0.145253      0.065851     -0.026827
O       0.05466     13.47911      2.70049        -1.042917      0.173844      0.595925
O      15.35702     13.48331     15.84052        -1.625492      0.074633     -0.482931
O       3.79430      1.97198      7.14339         0.169906     -0.272852     -0.458893
O       3.83562     13.40725      6.95780         0.026779      0.079262      0.488723
O      15.22895      1.87451      7.09122         0.724483     -0.219558     -0.041890
O      15.31492     13.51150      7.07877        -0.395907     -0.223519      0.245926
O       3.81356      1.78990     11.45158         0.000119      0.362714     -0.933517
O       3.80876     13.49332     11.36122        -0.776412     -0.345992      0.023100
O       0.01413      1.92209     11.49005         0.089401     -0.038759     -0.434545
O       0.01003     13.39051     11.24936        -0.398579      0.238255      0.633592
O       3.83700      5.61431      2.81384         0.991391      0.553100     -0.557348
O       3.76545      5.77259     15.78171         0.107347      0.356523      0.419900
O       0.06999      5.79566      2.76418        -0.704606     -0.229084      0.003048
O      15.33563      5.81154     15.69837        -0.232745     -0.407741      0.201563
O       3.79411      5.82863      7.05758        -0.362902     -0.803549     -0.185964
O      15.28437      5.75867      6.94116         0.284880      0.190312      0.316193
O       3.85655      5.77140     11.57715        -0.609355     -0.262279     -1.186740
O      15.35192      5.48221     11.39070        -0.343216      1.088337      0.173727
O       3.76160      9.71726      2.72874         0.203698     -0.010172     -0.178496
O       3.77194      9.63273     15.77265         0.036585     -0.264161     -0.033901
O      15.22721      9.52067      2.62984         1.466305     -0.699156      0.566498
O      15.21600      9.70829     15.81298         0.361302     -0.910547     -0.210353
O       3.78971      9.57048      7.16171        -0.149794      0.112767     -0.764523
O      15.30370      9.53077      7.12177        -0.258601      0.015275     -0.146055
O       3.76914      9.53022     11.47665        -0.560615      0.189041     -0.159390
O      15.30791      9.54458     11.46202        -0.764492     -0.017080     -0.463681
O       7.68102      1.89687      2.77181        -1.055749     -0.254139     -0.278747
O       7.63833      1.93658     15.77450        -0.338190      0.328557      0.243788
O       7.64919     13.35507      2.77925         0.587869      0.529504     -0.298326
O       7.61368     13.52072     15.74208        -0.190094     -0.322864     -0.310920
O       7.67202      1.76814      6.99246        -1.098576      0.432259      0.428571
O       7.69570     13.42844      7.05427        -1.158887     -0.189792     -0.259628
O       7.79543      2.03148     11.24306        -2.601765      0.229145      0.619029
O       7.66061     13.36067     11.37918        -0.309538     -0.145738      0.518489
O       7.67433      5.71707      2.72230        -1.011738      0.350832     -0.413792
O       7.63058      5.64063     16.01340         0.207011      0.437583     -0.977958
O       7.58624      5.86832      6.81238         1.196491      0.051914      1.008543
O       7.68382      5.69927     11.45487        -0.957171     -0.504282      0.015156
O       7.66162      9.61970      2.80927        -1.170371     -1.078073     -0.450424
O       7.61356      9.49815     15.73146        -0.513602      0.605130      0.143981
O       7.64886      9.64712      6.95561        -1.070017     -0.517430      0.194704
O       7.65217      9.68335     11.52393        -0.231960     -0.412883     -0.580076
O      11.45155      1.92464      2.70262         0.309243     -0.610875     -0.110366
O      11.49750      1.93996     16.02382         0.757650      0.420356     -0.659799
O      11.61054     13.41384      2.56427        -1.679795      0.043555      0.876874
O      11.40230     13.45458     15.58444        -0.158539      0.164165      0.677484
O      11.47750      1.87312      7.13715         0.054940      0.350722     -0.105499
O      11.52795     13.27459      7.12396        -0.462304      0.627814     -0.129154
O      11.50591      1.79140     11.43916         0.427848      0.140675     -0.440352
O      11.50232     13.66151     11.21585        -0.501162     -0.247647      0.474629
O      11.49218      5.75571      2.64882         0.282428     -0.473131     -0.322116
O      11.53162      5.74536     15.79259        -0.427306     -0.088373      0.077125
O      11.47963      5.77417      6.98877        -1.022744     -0.129100      0.697999
O      11.40216      5.74007     11.50924         1.218874      0.462054     -0.157485
O      11.42822      9.63970      2.61295        -0.198942     -0.182113      0.348680
O      11.42134      9.51440     15.72167         0.122800     -0.275826      0.300973
O      11.49095      9.68385      7.04420        -0.369252     -0.602312     -0.313503
O      11.40961      9.56586     11.59327         0.905131     -0.898920     -0.882868
O       1.91572      3.85529      2.74484        -0.033374     -0.983790      0.027074
O       1.79366      3.80083     15.65206         0.060703      0.290226      0.641292
O       2.07595      0.04607      2.74035        -0.815235     -0.500325     -0.032728
O       2.00983     15.23956     15.83890        -0.459345      1.869472     -0.821112
O      13.38782      3.75187      2.68371         0.430975      1.023057     -0.096354
O      13.60910      3.88349     15.74470        -0.855589     -0.890704      0.370584
O      13.58077     15.31183      2.75415        -0.694033      0.447607      0.174882
O      13.36169      0.11139     15.61736         0.088869     -1.094051      0.544753
O       1.74519      3.81654      7.03513         0.536514      0.378376     -0.061510
O       1.91110     15.28134      7.00134         0.100887      1.071470      0.440242
O      13.34788      3.87113      6.92175         0.124613     -0.547026      0.902607
O      13.24575     15.32599      6.97058         0.505166      0.065535      0.147510
O       2.00141      3.73330     11.32493         0.160022      0.343067      0.043597
O       1.89212     15.31888     11.36057        -0.314300      0.102349     -0.095695
O      13.38470      3.76340     11.37668        -0.435706      0.500396      0.181984
O      13.50212     15.35060     11.43624         0.353001      0.181810     -0.014680
O       2.06343      7.68631      2.64926        -0.349853      0.076851      0.437120
O       1.73224      7.61506     15.86119         0.704051      0.966785     -0.218586
O      13.44377      7.57059      2.62313        -0.507681      0.841595      0.508285
O      13.45330      7.60523     15.78982        -0.339707      0.953247     -0.235632
O       1.81869      7.60960      7.08717         0.235015      0.385289     -0.409902
O      13.31745      7.69226      6.86605         0.112913      0.222335      0.637429
O       1.79671      7.59902     11.44291         0.075331      0.318127     -0.094877
O      13.38276      7.60180     11.58927         0.216395      0.625481     -0.588446
O       1.68269     11.47521      2.62054         0.757030      0.241083      0.283602
O       1.81375     11.53860     15.81893         0.179939     -0.851846      0.051710
O      13.52031     11.49484      2.49449        -0.331398     -0.107120      0.771117
O      13.28071     11.50082     15.67281        -0.094636      0.316060      0.381724
O       1.76811     11.53269      7.06035         0.239594     -1.416342      0.516574
O      13.41680     11.46577      6.91943         0.481365      0.235440      0.794398
O       1.79905     11.49535     11.28745         0.614341     -1.137535      0.299499
O      13.22296     11.57130     11.39569         0.536458     -0.808403     -0.264424
O       5.76259      3.79122      2.66441         0.096499      0.219050     -0.163809
O       5.57058      3.89792     15.79313         1.172076     -0.296345      0.082329
O       5.77872     15.25893      2.65040        -0.332026      0.895660      0.073936
O       5.69767      0.06021     15.80202        -0.267017     -1.144683     -0.199663
O       5.84127      3.79664      7.00000        -0.478383      0.446104      0.098192
O       5.68408     15.34870      7.03730        -0.074159     -0.880852      0.171679
O       5.60568      3.78110     11.31568         0.437961     -0.195720      0.137015
O       5.75929      0.02194     11.31352         0.359664     -0.038504      0.077260
O       5.55962      7.73995      2.68836         0.580034     -1.660926     -0.084334
O       5.70712      7.69464     15.80548        -0.060244      0.076344     -0.106452
O       5.70574      7.70166      7.27538         0.299273      0.113019     -1.017864
O       5.76345      7.61445     11.23626         0.081105      0.242227      0.482372
O       5.86296     11.48068      2.75626        -0.583343     -0.167015     -0.240547
O       5.75021     11.57535     15.75738        -0.037598     -0.403906     -0.307608
O       5.67264     11.53728      6.97782         0.312992     -0.997701      0.266290
O       5.65393     11.53987     11.45055        -0.060209     -0.527993      0.252743
O       9.52211      3.83889      2.68566         0.143676     -0.691716     -0.011893
O       9.61371      3.77019     15.93547        -0.377371      1.152612     -0.331283
O       9.56628     15.27732      2.79125         0.091668      0.090922     -0.306597
O       9.53864      0.03518     15.72780        -0.009383     -1.448619      0.581624
O       9.47692      3.80743      6.88121         0.245128      0.922840      0.741338
O       9.47097     15.30439      7.06550         1.021455     -0.308839      0.057777
O       9.73381      3.83629     11.37422        -0.522521     -0.152978      0.468716
O       9.37687      0.01072     11.29311         0.646545      0.102886      0.092661
O       9.58952      7.56509      2.70040        -0.347346      0.881687     -0.136870
O       9.41103      7.64372     15.68332         0.630615     -0.883584      0.490830
O       9.60303      7.71735      7.07451        -0.269794     -0.883048     -0.031209
O       9.45602      7.65185     11.54621         0.382961      0.067924     -0.696139
O       9.43671     11.47309      2.57121         0.836837      0.564099      0.460598
O       9.53626     11.47736     15.67937        -0.240305      0.484850     -0.097534
O       9.55541     11.46556      7.08856        -0.065116     -0.047510     -0.093719
O       9.67616     11.46822     11.39837        -0.251241      0.422951     -0.016809
