  # total energy = -7878.88029410 
CRSYTAL
PRIMVEC
    15.2000000000000000    0.0000000000000000    0.0000000000000000
     0.0000000000000000   15.2000000000000000    0.0000000000000000
     0.0000000000000000    0.0000000000000000    17.000000000000000
PRESSURE
7.49297 6.93769 1.52305 -0.249133 0.049768 -0.083823
PRIMCOORD
320 1
Pb       3.62971      3.86457      4.30134         0.226058      0.059891     -0.384800
Pb       3.98958      3.91876      0.04794        -0.355785     -0.072913      0.497443
Pb       3.59318      0.23361      4.38652         0.142700     -0.610432     -0.206982
Pb       3.92107     15.16975     16.99119         0.158385      0.128251     -0.277743
Pb      15.17085      3.91386      4.17829         0.169322     -0.093603     -0.390034
Pb       0.15620      3.76101     16.92660        -0.689084      0.238799      0.690512
Pb      15.14657      0.31456      4.49136         0.398008     -0.750722     -0.773084
Pb       0.07317     15.08821     16.89630         0.091612      0.233466     -0.256431
Pb       3.97202      3.83817      8.43203        -0.358398     -0.275579     -0.298392
Pb       3.83217     14.94532      8.74895        -0.252854      0.492796     -0.609883
Pb       0.09212      3.69610      8.69140        -0.335603      0.109940     -1.141385
Pb      14.91919     15.06952      8.61905         0.898364      0.288252     -0.381894
Pb       3.83572      3.77904     12.59364         0.107618     -0.121865      0.820703
Pb       3.83570     15.18124     12.78006        -0.163890     -0.215143      0.375629
Pb      15.18153      3.75423     12.70285        -0.218921     -0.266898      0.313553
Pb       0.09201     15.17187     12.86638        -0.094290      0.136507     -0.252846
Pb       3.65246      7.74828      4.35026        -0.175620     -0.134476     -0.178407
Pb       3.88751      7.65079      0.01819        -0.013945     -0.618200     -0.199063
Pb      15.06070      7.89246      4.28581         0.308305     -0.637378     -0.182888
Pb       0.02169      7.58182     16.81475         0.061424     -0.257558      0.853541
Pb       3.80294      7.59497      8.34340        -0.064579     -0.110395      0.475934
Pb      15.04704      7.47705      8.52819        -0.194320     -0.011612      0.086575
Pb       3.77724      7.42457     12.55893        -0.111367      0.439132      0.156739
Pb      15.14162      7.34096     12.68972         0.303582      0.581351     -0.040302
Pb       3.48406     11.51644      4.36291         0.396916     -0.313836     -0.289263
Pb       4.07624     11.43364      0.33947        -0.270676      0.088702     -0.503498
Pb      15.03956     11.56172      4.22313         0.922760     -0.533221     -0.286164
Pb       0.14750     11.41330     16.92368        -0.274931     -0.036520     -0.244578
Pb       3.70612     11.40208      8.54939        -0.055942     -0.052094     -0.142490
Pb      15.00228     11.41134      8.57088         0.142322     -0.098285      0.001815
Pb       3.70636     11.28958     12.71147         0.173378     -0.150597      0.149627
Pb      15.17599     11.04942     12.90726         0.066229      0.547548     -0.637480
Pb       7.56146      3.78155      4.19442        -0.133618      0.103945     -0.365747
Pb       7.55167      3.77837      0.07013         0.160966      0.043529     -0.203010
Pb       7.58359     15.14399      4.23101        -0.076342      0.212282      0.114687
Pb       7.64826     15.10712      0.00735        -0.214215      0.184870     -0.215282
Pb       7.70547      3.76712      8.31825        -0.339918     -0.168994      0.125629
Pb       7.61782     15.10308      8.39233         0.101665      0.460744     -0.221998
Pb       7.57071      3.85872     12.76088         0.003880     -0.819770      0.152331
Pb       7.56320     15.14459     12.80490         0.202874      0.473093      0.281710
Pb       7.75431      7.63951      4.19630        -0.412084     -0.689478      0.925890
Pb       7.51714      7.74018      0.08961        -0.190404     -0.639425     -0.095708
Pb       7.52035      7.64092      8.31575         0.460862     -0.367208     -0.062616
Pb       7.42637      7.51367     12.62439         0.343331     -0.037062      0.698859
Pb       7.48600     11.36884      4.25950         0.297706      0.433133     -0.202907
Pb       7.61500     11.44832      0.02239         0.016388      0.268656      0.386679
Pb       7.51544     11.57291      8.53480         0.660116     -0.449281     -0.754836
Pb       7.45843     11.27897     12.68538         0.558596     -0.071017      0.754090
Pb      11.43052      3.79259      4.08927         0.152007      0.184795     -0.075170
Pb      11.39281      3.62661     16.99628        -0.078952      0.281218      0.020252
Pb      11.51013     15.19030      4.13453        -0.340773     -0.026089     -0.349892
Pb      11.50825     15.11518     16.91536        -0.491637      0.382748      0.461960
Pb      11.42902      3.80624      8.44826        -0.116301      0.094225      0.340574
Pb      11.26220      0.01282      8.39195        -0.021587     -0.150453      0.294230
Pb      11.34058      3.72995     12.81265         0.460367      0.014489      0.079849
Pb      11.41605     15.10965     12.73413        -0.206402      0.393114     -0.007233
Pb      11.46692      7.76179      4.07547        -0.038250     -0.765089      0.494087
Pb      11.35364      7.52979     16.90430         0.197408      0.342619     -0.017872
Pb      11.25743      7.48913      8.60095         0.325907      0.281207     -0.694872
Pb      11.31993      7.47754     12.87496         0.089325      0.057230     -0.333014
Pb      11.39981     11.31258      4.12384        -0.103122     -0.046964      0.065799
Pb      11.43319     11.50314     16.83250        -0.102071     -0.930289      0.558642
Pb      11.25665     11.49551      8.50985         0.344000     -0.549614      0.174049
Pb      11.33204     11.30774     12.63575         0.062175     -0.147128      0.452315
Ti       1.91667      1.94393      2.15990        -0.776985      0.478919      0.200207
Ti       1.98823      1.94563     15.06555         0.037361     -1.110699     -1.328046
Ti       1.93178     13.39041      2.13499        -0.710045     -0.677868     -0.082347
Ti       1.97314     13.24946     14.95518         0.296877     -0.337646     -0.605512
Ti      13.31884      1.89317      2.19724         0.309338     -0.003959     -0.813654
Ti      13.32620      1.82132     14.99246         0.358848      1.034290     -0.291061
Ti      13.36073     13.26234      2.10231        -0.084758      0.878384      0.982335
Ti      13.26925     13.28349     14.79931         1.672592     -0.483608      0.530500
Ti       1.88786      1.83285      6.70101        -0.433779     -0.153039      0.034187
Ti       1.84332     13.26614      6.59036        -0.325368      0.685271      0.504166
Ti      13.25581      1.90398      6.54119         0.316780     -0.118240      0.178166
Ti      13.24766     13.28341      6.35701         0.749702     -0.249333      1.239687
Ti       1.93134      1.86435     10.77520        -0.227451     -1.284856     -0.838486
Ti       1.91370     13.21159     10.84448        -0.241496      0.897086     -0.880008
Ti      13.27289      1.85725     10.78639        -0.538614     -0.402834     -0.638762
Ti      13.37434     13.23464     10.82579        -0.437056     -0.248363      0.288520
Ti       1.85683      5.82794      2.18058         0.049687     -1.027802      0.117204
Ti       1.96630      5.60765     14.87692        -0.168665      0.925125      1.072170
Ti      13.26771      5.72304      2.05880         0.742763     -0.601993      0.944571
Ti      13.29393      5.57763     15.04855        -0.233760      0.343052     -0.827200
Ti       1.86358      5.67643      6.44940        -0.456833     -0.468143      1.105916
Ti      13.26875      5.62784      6.29386         0.309599      0.687047      0.871460
Ti       1.92485      5.58165     10.58125         0.440356      1.849642      0.684081
Ti      13.24525      5.63934     10.76321        -0.304109     -0.435506     -1.026980
Ti       1.88819      9.52634      2.18698        -0.598701      0.454994      2.560245
Ti       1.96699      9.42043     14.96322        -0.860417      0.132919     -1.124389
Ti      13.33175      9.55219      2.01120        -0.363375     -0.755190      0.492187
Ti      13.27101      9.44367     14.94960        -0.582251      0.118968      0.447919
Ti       1.71004      9.45706      6.64587         1.370962      0.759590     -0.966198
Ti      13.22808      9.46812      6.58900        -1.491618     -0.202624     -0.902771
Ti       1.89984      9.43154     10.71481        -0.774051     -1.034395      0.516034
Ti      13.23231      9.40558     10.86575         0.388696     -0.038916     -1.234599
Ti       5.63710      1.91875      2.29778        -0.137211     -0.209178     -0.898316
Ti       5.74189      1.88552     14.95614        -0.335019     -0.200926      0.218986
Ti       5.62319     13.36285      2.41362         0.611674     -0.420995     -0.617641
Ti       5.69026     13.24300     14.95924         0.385225      0.680658      0.171062
Ti       5.67748      1.77244      6.40744         0.506358      0.539054      0.215770
Ti       5.63879     13.23632      6.40142         0.357264      0.621734     -1.112731
Ti       5.72261      1.86811     10.67818         0.525244      0.202785     -0.472623
Ti       5.78168     13.28209     10.80939        -1.322084     -0.085338     -0.449354
Ti       5.63530      5.78254      2.39117        -0.052017     -0.945578     -1.497938
Ti       5.69662      5.71758     14.96013         0.339339     -0.132109      0.172522
Ti       5.71963      5.69156      6.38505         0.099419     -0.048622      0.285709
Ti       5.74224      5.61179     10.53315        -0.493023      0.179069      0.400250
Ti       5.69598      9.47390      2.43546        -0.509032      1.364320     -0.927329
Ti       5.66353      9.53540     14.97564         0.097759     -0.573255     -0.026956
Ti       5.61898      9.53692      6.41110         0.311295     -0.243513      0.248103
Ti       5.72405      9.46662     10.59356        -1.879110     -0.734820     -0.591908
Ti       9.48268      1.86269      2.21351         0.039625     -0.377385     -0.840430
Ti       9.50242      1.83989     15.03412        -0.815916      0.374485     -0.148500
Ti       9.50066     13.26925      2.26445        -0.396886     -0.034056      0.270626
Ti       9.53590     13.25169     14.88756        -1.151532     -0.274148     -0.588312
Ti       9.52180      1.92499      6.28716        -0.976390     -1.639099      0.455296
Ti       9.55547     13.26473      6.30347        -1.390008     -0.386835      1.634401
Ti       9.47175      1.81034     10.80026        -0.384944      0.037122     -0.561314
Ti       9.48599     13.23325     10.79659         0.812474     -0.097356     -0.676029
Ti       9.49810      5.69810      2.14782        -0.420913     -0.541141      0.191838
Ti       9.37798      5.71667     15.06983         0.315547     -0.969737     -0.430905
Ti       9.57978      5.64896      6.29426        -0.866448      1.012054     -0.620303
Ti       9.46754      5.55382     10.84477         0.057534      0.904023     -1.098602
Ti       9.47788      9.46899      2.17768         0.190899      1.337186      0.051478
Ti       9.37613      9.45344     14.94977         1.558300      0.602429      0.164476
Ti       9.46595      9.46747      6.43557         0.956301      0.352965      0.278170
Ti       9.41892      9.34462     10.73403         1.495879      0.737563     -0.824012
O       1.84791      1.99250      0.37447         0.395028     -0.537297      0.455111
O       1.92624      1.95129     13.22272        -0.175471      0.063986      0.128888
O       2.00907     13.21825      0.29884        -0.241732      0.372834      0.943932
O       2.07223     13.12496     13.07574        -0.493865      0.434797      1.182386
O      13.29217      2.03713      0.39712         0.028535     -0.852801     -0.004868
O      13.32964      1.86014     13.20970         0.031628      0.028540     -0.192329
O      13.40521     13.26758      0.34522        -0.361510      0.054934     -0.424442
O      13.31524     13.38743     13.03959         0.078860     -0.580442      0.644515
O       1.70457      1.85048      4.88173         0.363373     -0.024052     -0.418773
O       1.87081     13.42850      4.83267        -0.234934     -0.678877     -0.844397
O      13.29476      1.87747      4.73618         0.020689     -0.050346     -0.002355
O      13.37671     13.28296      4.57925        -0.467074      0.146155      0.466384
O       1.98177      1.83803      8.95193        -0.150892      0.004654      0.816663
O       2.05371     13.36642      8.97452        -0.358186     -0.754693      0.738100
O      13.19978      1.80712      8.93172        -0.090734      0.305609      0.974652
O      13.25965     13.12735      8.99916         0.095771      0.596669      0.693175
O       1.91235      5.75224      0.38836         0.267226      0.098348      0.713124
O       1.99871      5.57188     13.10611        -0.431426      0.021173     -0.101498
O      13.30805      5.65073      0.29738        -0.268355     -0.045805     -0.283370
O      13.29835      5.63877     13.18369         0.004237     -0.113364      0.702212
O       1.79400      5.67605      4.67636         0.266542      0.046992      0.467516
O      13.18470      5.55890      4.48087         0.350227      0.473744      1.314259
O       1.95931      5.62945      8.83401        -0.226395     -0.221759      0.040675
O      13.25516      5.59754      8.90248        -0.338871      0.006443      1.764634
O       1.81559      9.47790      0.49716         0.299340     -0.019489     -1.949451
O       1.92644      9.42376     13.08804        -0.092874      0.134353      1.484447
O      13.29918      9.59809      0.26668        -0.006608     -0.007460      0.017345
O      13.29110      9.37220     13.11547         0.092296      0.020189      1.017884
O       1.81025      9.52174      4.78733        -0.275156     -0.267204      0.890190
O      13.23766      9.50641      4.72293         0.002279     -0.175061      0.709250
O       1.81838      9.38855      8.96019         0.225725      0.279496     -0.801214
O      13.34360      9.29684      9.03769        -0.247719      0.427208      0.196285
O       5.50921      1.91507      0.45394         0.347396     -0.174223      0.716999
O       5.78633      1.87967     13.15715         0.004698     -0.001715      0.323110
O       5.60888     13.31668      0.51346        -0.132876     -0.239766      0.183863
O       5.73137     13.27338     13.17991         0.053496     -0.488935     -0.848185
O       5.71942      1.87735      4.60060        -0.039711     -0.016360      0.385596
O       5.69326     13.24512      4.55820        -0.370787      0.179759      1.463265
O       5.72654      1.83456      8.86754        -0.196717      0.202477      0.799229
O       5.71559     13.29250      8.97160         0.255683     -0.340700      0.715110
O       5.57169      5.83567      0.44090        -0.001334     -0.123824      1.559468
O       5.86337      5.63517     13.16220        -0.344376      0.233519      0.523008
O       5.66139      5.60378      4.62980        -0.045849     -0.068090     -1.155772
O       5.64891      5.68756      8.78536         0.377201     -0.194148     -0.688858
O       5.69991      9.48480      0.53625        -0.236037      0.048105      0.748609
O       5.81106      9.42642     13.20100        -0.345061      0.156054      0.122078
O       5.52753      9.65910      4.60692         0.449745     -0.479336      0.694702
O       5.70097      9.45614      8.77499         0.161608     -0.010586      1.436347
O       9.58260      1.81235      0.34180        -0.297450     -0.311248      1.424744
O       9.39969      1.76357     13.23754         0.116925      0.388848      0.238718
O       9.51154     13.32149      0.47252        -0.041574      0.078818     -0.223582
O       9.49994     13.17599     13.07255        -0.147380      0.141944      1.323208
O       9.45418      1.82641      4.53263         0.095547      0.599180     -0.037207
O       9.54452     13.18454      4.56812         0.030071      0.121990     -0.434589
O       9.44501      1.85983      9.00881         0.310772     -0.100624      0.026125
O       9.46682     13.25715      8.92854        -0.070902      0.214010      1.255098
O       9.35256      5.72367      0.37738         0.587966      0.065939      0.084968
O       9.38779      5.71511     13.22562        -0.202408     -0.250622      0.583128
O       9.60190      5.62962      4.50559        -0.231901     -0.200269      0.616287
O       9.44033      5.68379      9.04184         0.484727     -0.190516      0.032870
O       9.35755      9.59870      0.41080         0.267764     -0.497585      0.544927
O       9.52723      9.49455     13.14868        -0.754388     -0.071475      0.730561
O       9.65407      9.48467      4.62764        -0.343126      0.188931      0.529166
O       9.45256      9.24444      8.91099        -0.047625      0.201159      0.949424
O       3.73338      1.96534      2.72542        -0.875920     -0.254590     -0.053548
O       3.84789      1.73527     15.28190        -0.127867      0.297008      0.039219
O       3.74457     13.18340      2.68056        -0.889632      0.192408     -0.419571
O       3.85102     13.38218     15.26442        -0.731284     -0.274019      0.100540
O      15.15813      1.98095      2.68977         0.947164     -0.392944     -0.383030
O       0.03136      1.92922     15.33963        -0.010523      0.362287     -0.040621
O       0.01530     13.30786      2.42849        -0.013675     -0.259780      0.135894
O       0.02643     13.18192     15.22912        -0.054376      0.256473     -0.046717
O       3.82034      1.81438      6.55304        -0.547602      0.098008      0.775233
O       3.78824     13.29349      6.80899         0.146731     -0.482678      0.353896
O      15.12177      1.82636      7.02792         0.007928      0.376570     -0.264010
O      15.12497     13.24191      6.92099        -0.557936     -0.275619     -0.078536
O       3.82155      1.65727     11.17024        -0.390840      0.549655     -0.625037
O       3.84590     13.43466     11.04474         0.477218     -0.259703      0.084488
O      15.11155      1.99954     11.08778         1.929266      0.232458     -0.160417
O       0.04971     13.09435     11.05694        -0.166139     -0.105771     -0.010090
O       3.75314      5.78308      2.64422        -0.271195      0.130636      0.078272
O       3.82494      5.76534     15.20901        -0.209254      0.350191      0.184469
O       0.01299      5.59161      2.42249        -1.292958      0.293323      0.178379
O      15.18055      5.60651     15.28095         0.791575     -0.291267     -0.317091
O       3.80828      5.68612      6.77838        -0.996443     -0.119110     -0.286323
O      15.13973      5.53786      6.84859        -0.164851      0.238305     -0.492049
O       3.90898      5.67654     11.00447        -1.901229      0.023649     -0.005742
O      15.18533      5.51684     10.99925         0.136865     -0.041861     -0.003205
O       3.77116      9.62430      2.61245        -0.767819     -0.780879     -0.243093
O       3.74943      9.41001     15.28395         1.300690     -0.080035      0.184701
O      15.11216      9.47934      2.61641         0.637325      0.162071     -0.364019
O      15.17257      9.52124     15.38572         0.181029      0.253246     -0.862491
O       3.78749      9.40241      6.80304        -0.377506      0.487742     -0.002653
O      15.10345      9.39599      6.89871         0.416287      0.245362      0.107736
O       3.77632      9.29185     11.08248         0.939807      0.063951     -0.423666
O      15.17897      9.36966     11.15244         0.546801      0.224172      0.155310
O       7.50502      1.81236      2.56132         0.628818      0.199854     -0.244188
O       7.56477      1.88246     15.52563         0.118868     -0.025919     -0.431693
O       7.52301     13.31841      2.60160         0.844130      0.240788     -0.021122
O       7.60373     13.19690     15.33712         0.828586     -0.188410     -0.090677
O       7.57499      1.80150      6.69175         1.054213      0.486274      0.257737
O       7.54694     13.24657      6.66154         0.884266     -0.218388      0.440029
O       7.57273      1.98542     11.02817        -0.023835     -0.010977      0.287579
O       7.62483     12.96325     11.15246        -0.546512      0.724995     -0.668930
O       7.58564      5.69781      2.55386        -0.302969      0.030994      0.294177
O       7.50890      5.63717     15.50701         0.357090      0.068429     -0.578816
O       7.60441      5.69214      6.58429         1.217795     -0.393548      0.522592
O       7.54240      5.38530     10.95142         0.993078      0.585991      0.490539
O       7.57780      9.42894      2.70540         0.288925      0.304970     -0.296512
O       7.56769      9.70476     15.46104        -0.139970     -0.608578     -0.858936
O       7.61195      9.37358      6.68817        -0.594353      0.667694     -0.101242
O       7.54328      9.55687     10.95495         0.363313     -0.149200      0.370190
O      11.39006      1.83711      2.52655        -0.612207     -0.087477      0.147786
O      11.39247      1.73085     15.31211         0.098544      0.275925      0.022674
O      11.39832     13.28400      2.50074         0.236519     -0.054800      0.037443
O      11.44817     13.39118     15.27591        -0.451932      0.189226     -0.159741
O      11.33321      1.70631      6.72215         0.133926      0.337597      0.317468
O      11.40596     13.29835      6.82084         0.114950     -0.131449     -0.367467
O      11.39470      1.71492     11.14269        -0.222228     -0.149153      0.100706
O      11.38961     13.32625     11.20635         0.455066      0.166966     -0.771845
O      11.37435      5.58897      2.46271        -0.263158      0.393573     -0.464312
O      11.37086      5.76136     15.30451        -0.654813      0.124359      0.016235
O      11.37820      5.65489      6.80610         0.187922      0.188775     -0.010726
O      11.32551      5.67782     11.19061         0.593190     -0.025703     -0.128604
O      11.41639      9.49370      2.52373        -0.312040      0.344788     -0.500302
O      11.30049      9.37957     15.42104         0.828291     -0.182805     -0.612104
O      11.36849      9.58904      6.93726        -0.044643     -1.069430     -0.077185
O      11.35930      9.36474     11.11925        -0.150893     -0.208166     -0.117991
O       1.90438      3.83136      2.61685         0.023462     -0.199204     -0.106747
O       2.03316      3.79861     15.44619        -0.083316      0.361677     -0.573089
O       1.83640      0.02194      2.55363         0.429298      0.506801     -0.130258
O       1.90871     15.18769     15.26664        -0.565395     -0.635752      0.128195
O      13.20595      3.73926      2.51361         0.114712      1.022829      0.101447
O      13.09691      3.72713     15.29680         0.523230      0.374289     -0.111450
O      13.28708      0.00489      2.49053        -0.048104     -0.676671      0.050659
O      13.49523     15.18268     15.26640        -0.644936     -0.929259      0.350081
O       1.84591      3.72422      6.93491         0.450156      0.563264     -0.187584
O       1.77355     15.09605      6.91280         0.382130      1.302406      0.281130
O      13.08182      3.76379      6.80758         0.519364     -0.028965     -0.273323
O      13.29416     15.17579      6.87594        -0.181720     -0.949442     -0.392082
O       2.05549      3.75725     10.97681        -0.307486     -0.807425      0.226792
O       1.72160     15.13473     11.12830         0.405235      0.917668      0.149221
O      13.15261      3.74053     11.16062        -0.072684     -0.033595     -0.161425
O      13.56049     15.12147     11.23119        -0.865364      0.508668     -1.016067
O       1.76388      7.62951      2.78239         0.634047      0.736786     -0.766614
O       1.84788      7.51776     15.38737         0.038077      0.462580     -0.811250
O      13.18797      7.59398      2.40895         0.505156      0.086513     -0.051696
O      13.40923      7.59694     15.36261        -0.866421     -0.413297     -0.455891
O       1.85139      7.57430      6.94992        -0.176143     -0.671817     -0.732483
O      13.30052      7.53643      6.83272        -0.291034     -0.751503     -0.486273
O       1.83537      7.44934     11.02988         0.216839     -0.000642      0.161688
O      13.23606      7.47042     11.15096         0.456783     -0.089972     -0.009997
O       1.82681     11.44890      2.62111        -0.230871     -0.376691     -0.173961
O       1.90490     11.31980     15.28427         0.279228      0.239001     -0.154902
O      13.33767     11.36454      2.57761        -0.368882      0.684234     -0.360156
O      13.13895     11.40165     15.16552         0.434904     -0.160728     -0.267840
O       1.87107     11.35352      7.00259        -0.015737     -0.316271     -0.142539
O      13.27813     11.33026      6.82374         0.285962      1.384652      0.042351
O       2.06762     11.32899     10.99540        -0.035652     -0.377795      0.008164
O      13.35677     11.29067     11.19800        -0.585211      0.463855     -0.227263
O       5.55636      3.82400      2.47493         0.513684      0.327299      0.542274
O       5.53160      3.79703     15.33335         0.854864      0.040496     -0.234158
O       5.42881      0.00834      2.53635         0.516245      0.244881      0.331254
O       5.80076     15.14513     15.25518        -0.031882      0.258993      0.413871
O       5.73844      3.83467      6.85951        -0.147063     -1.530405     -0.382422
O       5.73583     15.09054      6.93035        -0.398995      0.623592     -0.801445
O       5.52467      3.77151     11.01613         0.379099     -1.294098     -0.412447
O       5.84881     15.14525     11.08910         0.241131     -0.146873     -0.067145
O       5.66446      7.62310      2.79004        -0.121281      0.112006     -0.195347
O       5.81217      7.63702     15.40564        -0.327640      0.371726     -0.446238
O       5.69736      7.57607      6.78404        -0.174891      0.516645     -0.423395
O       5.76568      7.43727     11.01125         0.401837      1.905346     -0.159267
O       5.73579     11.42801      2.65456        -0.187002     -0.952466     -0.623612
O       5.58200     11.39775     15.42360         0.039133     -0.535616     -0.091607
O       5.78028     11.38035      6.90744        -0.674943     -0.127063     -0.385382
O       5.53702     11.28321     11.04149         0.266483      0.506732     -0.052458
O       9.40352      3.74094      2.36649         0.048273      0.108913      0.472713
O       9.35150      3.77700     15.35220         0.862443      0.018079     -0.111358
O       9.39444     15.17568      2.76022         0.706148     -0.222074     -1.039311
O       9.46899     15.12839     15.27509        -0.328646     -0.419750      0.242450
O       9.57933      3.72885      6.74227        -0.419550      0.561922     -0.042364
O       9.44989     15.09846      6.77666         0.083662      0.708926     -0.275657
O       9.59060      3.71117     11.21932        -0.072669     -0.160717     -0.105166
O       9.32214     15.12186     11.16755         0.189803     -0.039613     -0.323684
O       9.42403      7.61940      2.61669         0.818035     -0.659934     -0.756277
O       9.38203      7.58211     15.44022        -0.383222      0.600133     -0.497148
O       9.49299      7.55878      6.62754         0.428998     -0.473488      0.475195
O       9.44700      7.54242     11.26584        -0.505487     -0.351090     -0.726028
O       9.40175     11.34658      2.57674         0.224354      0.365488     -0.056231
O       9.69348     11.37378     15.32272        -0.789756      0.533514     -0.411443
O       9.56372     11.39328      6.95546        -0.948779      0.083055     -0.891068
O       9.71716     11.34051     10.98226        -0.926453     -0.737487     -0.193736
