  # total energy = -7866.03923179 
CRSYTAL
PRIMVEC
    15.010000000000000    0.0000000000000000    0.0000000000000000
     0.0000000000000000   15.010000000000000    0.0000000000000000
     0.0000000000000000    0.0000000000000000    16.400000000000000
PRESSURE
17.687 17.6648 10.4554 0.010332 0.112009 -0.089037
PRIMCOORD
320 1
Pb       3.90172      3.78016      4.28258        -1.194917     -0.238301     -1.355193
Pb       3.69213      3.74403      0.01500         0.233324      0.131088      0.218693
Pb       3.67606      0.03014      4.14827         0.312123     -0.172717     -0.865937
Pb       3.76545     14.91676      0.00046        -0.339623     -0.176340      0.491095
Pb      14.93184      3.72915      4.12204         0.588549      0.153236     -0.465728
Pb      14.96870      3.61940     16.35204         0.226949      0.215122      0.554794
Pb      14.95372      0.01916      4.22019         0.507376     -0.099041     -0.947143
Pb      14.97243     14.88921      0.12172         0.164197      0.617036     -0.332992
Pb       3.57823      3.77347      8.24465         0.845832      0.324112      0.055144
Pb       3.62616     14.98385      8.10569         0.699365      1.164514      1.016666
Pb      14.88465      3.82473      8.33231        -0.057226     -0.355938     -0.606450
Pb      14.87764     14.95587      8.16105        -0.042935      0.603724      0.287840
Pb       3.59739      3.72389     12.32314         0.466399      0.368487     -0.077311
Pb       3.67652     14.93085     12.39910        -0.118929      0.412895     -0.810992
Pb      14.95209      3.74251     12.42111         0.127578     -0.316367     -0.143090
Pb      14.99845     14.95631     12.37381        -0.226161      0.086535     -0.607266
Pb       3.84463      7.41578      4.16157        -0.315392      0.020391     -0.465569
Pb       3.75270      7.44346      0.09592        -0.175247      0.343121     -0.661661
Pb       0.01911      7.50205      4.17110         0.526164     -0.587479     -0.448207
Pb      14.94834      7.50034      0.00818         0.792215      0.260361      0.137724
Pb       3.76519      7.50124      8.08702        -0.136445     -0.187480      0.681360
Pb      14.99560      7.52349      8.34312         0.022529     -0.034729     -0.518765
Pb       3.67663      7.57405     12.29059        -0.080386     -0.278738     -0.908622
Pb      14.91154      7.42087     12.35044         1.074101      0.269425     -0.166262
Pb       3.78000     11.18848      4.36688         0.613081      0.143026     -1.266107
Pb       3.76882     11.14424     16.32303         0.030538      0.292741      0.561476
Pb       0.13233     11.18598      4.12432        -0.091439      0.112365     -0.194131
Pb      15.00096     11.32364      0.06089         0.447390     -0.685284     -0.068394
Pb       3.82868     11.27688      8.15707        -0.085882     -0.578278      0.663979
Pb       0.04230     11.26867      8.21011        -0.405069     -0.158523      0.237379
Pb       3.76786     11.32194     12.27145        -0.313993     -0.580232     -0.474770
Pb       0.02797     11.28638     12.35087         0.010419     -0.038060     -0.666501
Pb       7.47448      3.71577      4.05635        -0.266543      0.125154     -0.379433
Pb       7.49334      3.70074     16.35492        -0.162749      0.525901     -0.271818
Pb       7.49170     14.90002      4.14926        -0.198077      0.266338     -0.743480
Pb       7.37109     14.97632      0.00557         0.310451     -0.026112      0.062430
Pb       7.38598      3.65629      8.13667         0.385876      1.369377      0.922410
Pb       7.50254      0.20848      8.12421         0.135828     -0.852351      0.700079
Pb       7.35024      3.78833     12.33444         0.426695     -0.159286     -0.197692
Pb       7.46281     14.89101     12.37706         0.280114      0.013586     -0.307196
Pb       7.50817      7.52768      4.07895         0.230908     -0.478451     -0.114341
Pb       7.50348      7.53675     16.32643         0.260194     -0.871858      0.404424
Pb       7.46782      7.45841      8.31588        -0.134087     -0.072335     -0.378545
Pb       7.46906      7.56790     12.36007        -0.470010     -0.535874     -0.263022
Pb       7.69902     11.22944      4.20312        -0.855344     -0.336200     -0.684261
Pb       7.52901     11.23617     16.36851        -0.375801     -0.042967      0.149223
Pb       7.59113     11.33901      8.08309        -0.077308     -0.771699      0.740904
Pb       7.47163     11.23650     12.20333         0.027547      0.653339      0.160030
Pb      11.07492      3.80037      4.12497         0.624661      0.074839     -0.606011
Pb      11.27212      3.67645     16.37581        -0.729716      0.513471      0.437262
Pb      11.28303     14.98770      4.13636        -0.290977      0.143442     -0.731393
Pb      11.19337     14.92178      0.10248         0.032048      0.142664     -0.486744
Pb      11.16390      3.73625      8.18147        -0.084093     -0.186143      0.639378
Pb      11.15484      0.05969      8.20353         0.469607      0.454107      0.139857
Pb      11.20809      3.70323     12.38369        -0.216660     -0.187336     -0.545876
Pb      11.23690      0.11082     12.40934        -0.033932     -0.727543     -0.300316
Pb      11.42957      7.49235      4.19721        -1.007936     -0.896768     -0.785286
Pb      11.28180      7.49847      0.04773        -1.070555     -0.269854      0.147471
Pb      11.24024      7.47414      8.22349        -0.013617     -0.316913      0.252589
Pb      11.31876      7.45930     12.29754        -0.573362      0.071901      0.015320
Pb      11.45759     11.11983      4.13386        -0.864596      0.377047     -0.087847
Pb      11.38668     11.11097     16.37727        -0.593181      0.278896     -0.055780
Pb      11.29984     11.26253      8.27580        -0.097795     -0.518575     -0.369709
Pb      11.26025     11.26467     12.26680        -0.575202      0.461784      0.499601
Ti       1.83219      1.87321      2.08522         0.850880      0.400934      1.829449
Ti       1.85983      1.85554     14.46918        -1.216848     -0.806624     -0.177480
Ti       1.90529     13.03135      2.19241         0.593454      1.473709     -0.328586
Ti       1.80578     13.09599     14.49636         0.309064      0.346306      0.454625
Ti      13.07085      1.88737      2.06005        -0.281404     -0.002830      1.486097
Ti      13.07197      1.88073     14.47842        -0.206492     -2.008307     -1.239750
Ti      13.10936     13.11120      2.07668         0.122429      0.613913      0.557522
Ti      13.08190     13.06971     14.43856        -1.018710      1.102753      0.091704
Ti       1.83816      1.86206      6.23431        -0.101351      0.753556     -0.449313
Ti       1.89948     13.12802      6.29927        -0.475737      0.236526     -0.675663
Ti      13.10254      1.85198      6.08013        -0.546353      0.470038      1.001747
Ti      13.06894     13.09897      6.19289         1.475245     -0.626890      0.379474
Ti       1.81198      1.88189     10.18897         1.250412     -0.933590      0.513459
Ti       1.88628     13.13839     10.24725        -0.932390      0.285165      1.512306
Ti      13.14317      1.85751     10.41514        -0.956176     -0.083401      0.087732
Ti      13.07446     13.10249     10.25144         0.537609      1.020620      0.628620
Ti       1.81792      5.62615      2.06927         0.723652     -1.195186      2.062790
Ti       1.79882      5.61467     14.48147         0.576945      0.825002     -0.758017
Ti      13.15689      5.64930      1.93621        -1.228681     -0.884026      1.891382
Ti      13.07987      5.66647     14.38884        -0.607714     -0.973059      0.250029
Ti       1.79720      5.54918      6.20293         0.409422      1.339972     -0.120391
Ti      13.07833      5.54165      6.25739         0.269217      0.862929     -0.630273
Ti       1.79693      5.57066     10.35968         1.715506      1.738773     -0.492187
Ti      13.04957      5.60102     10.31278         0.126594      0.200623     -0.265792
Ti       2.03517      9.36500      2.00100        -1.182182     -0.444399      0.396239
Ti       1.86644      9.36019     14.34332         0.490302     -0.108008      0.519183
Ti      13.22112      9.37283      2.12512         0.923469     -1.193783     -0.651425
Ti      13.16465      9.34548     14.39752        -0.153817      0.375948      0.028774
Ti       1.88870      9.35302      6.23099        -0.877717     -1.052877      1.199774
Ti      13.14974      9.30027      6.22265         0.688683     -0.040695      2.810801
Ti       1.76709      9.41536     10.22723         0.950260     -0.673318      0.776459
Ti      13.03049      9.36774     10.33487         0.819413      0.016639     -0.667568
Ti       5.56421      1.85258      2.07806         0.435992     -0.062840      2.144747
Ti       5.50660      1.89702     14.30094         0.857662      0.133324      0.289397
Ti       5.61271     13.09100      2.09981        -0.313517     -0.538993      1.431294
Ti       5.55338     13.09849     14.36952         0.601487      0.183301      0.503084
Ti       5.64085      1.88253      6.22454        -0.664401      0.148693      0.256106
Ti       5.67736     13.15086      6.23251        -0.462308     -0.039298     -0.946125
Ti       5.56531      1.90514     10.28702        -0.431886      0.183083      0.370327
Ti       5.58858     13.26657     10.16720         0.122613     -2.034501      1.074833
Ti       5.58008      5.61913      2.00604        -0.249348     -0.905775      0.626568
Ti       5.50373      5.66184     14.34948         0.815671     -0.669867      0.647026
Ti       5.57348      5.60828      6.19514         1.319280      0.874575      0.983024
Ti       5.60448      5.64829     10.30415        -1.708295      0.520744     -0.573328
Ti       5.69788      9.36352      2.09862        -0.374598      0.523002      0.757122
Ti       5.64851      9.36943     14.35065        -0.905813      0.008966      0.418205
Ti       5.72657      9.36506      6.17696        -0.471452     -0.582864      0.108413
Ti       5.56648      9.46253     10.26871        -1.679643     -0.865774     -0.768144
Ti       9.30483      1.81543      2.06527         0.315733     -0.195610      0.382040
Ti       9.24898      1.81607     14.40189         0.540181      0.315010      0.536241
Ti       9.35196     13.02165      2.03277         0.365310      1.475655      1.322728
Ti       9.36480     13.05628     14.49710        -0.165373      0.400026     -0.277964
Ti       9.37070      1.79504      6.13379         0.488456      0.624588     -0.473147
Ti       9.46461     13.07135      6.12856        -0.606612     -0.091249      0.778063
Ti       9.33157      1.90209     10.37199         0.799023      0.540692     -0.279491
Ti       9.37058     13.17621     10.20443         0.008156      0.056975      1.136491
Ti       9.31409      5.58270      2.05426         0.352185      1.789047     -0.120851
Ti       9.33571      5.56272     14.33304        -0.324000      0.787193      1.013840
Ti       9.31715      5.62646      6.17547        -0.023743     -1.094613      0.467883
Ti       9.26545      5.65987     10.32990         1.188827     -0.674703      0.051593
Ti       9.42338      9.35909      2.03737        -0.209905     -1.608662      0.011304
Ti       9.38700      9.30470     14.33342         0.377598     -0.258993      1.079183
Ti       9.41381      9.26753      6.27800         0.000034      0.510209     -0.356168
Ti       9.26466      9.37502     10.34672         0.921628      0.028665     -0.752643
O       1.85742      1.88423      0.31025         0.035253     -0.114614     -0.823825
O       1.81529      1.93357     12.65095         0.123410     -0.651139     -0.093530
O       1.88881     13.10316      0.37483        -0.520340     -0.200728     -0.746113
O       1.76135     13.15948     12.72032         0.285281      0.012863     -1.190684
O      13.03989      1.74626      0.29211        -0.012331      0.158257     -1.336282
O      13.11299      2.00027     12.50880         0.269107     -0.475921      1.613805
O      12.93678     13.12545      0.23466         1.155646     -0.141286      1.022841
O      13.01092     13.09695     12.66435         0.472930     -0.343291     -0.825286
O       1.70619      1.91768      4.42724         0.449623     -0.826933      0.039816
O       1.82924     13.03438      4.48550         0.324138      0.448885     -0.202499
O      13.03646      1.91759      4.31690         0.517584     -0.032869     -0.453695
O      13.07776     12.98853      4.40606         0.280277      0.241524     -0.744354
O       1.85275      1.87999      8.38628        -0.253812      0.448274      0.415744
O       2.02680     13.22798      8.51142        -0.547476     -0.679229     -1.631878
O      12.95597      1.80192      8.65161         0.277974     -0.112749     -1.722733
O      13.10578     13.20726      8.41840        -0.344341     -0.532534      0.561200
O       1.80032      5.56137      0.30828         0.099578     -0.134998     -1.585698
O       1.92663      5.54324     12.66041        -0.472640      0.178168     -0.442060
O      13.15423      5.66331      0.14315         0.013743     -0.300685     -0.221349
O      13.11441      5.61290     12.53532        -0.281382     -0.124294      0.521425
O       1.99291      5.61471      4.41581        -0.940414      0.261469      0.218885
O      13.09881      5.63858      4.39111        -0.137939     -0.151653      0.839253
O       1.78549      5.56166      8.52371        -0.084039     -0.211445     -0.117586
O      13.13598      5.74518      8.47343         0.260633     -0.627969      0.224530
O       1.98423      9.29866      0.18656        -0.380459      0.669405      1.119849
O       1.83635      9.42596     12.54124        -0.499178      0.104669      0.107387
O      13.26471      9.19454      0.31946        -0.521312      0.985978     -0.590059
O      13.08254      9.39664     12.61115         0.431958      0.005161     -0.411418
O       1.79019      9.32841      4.45211        -0.195579      0.160864     -0.626189
O      13.22362      9.34003      4.46813         0.205601     -0.144775     -2.349496
O       1.88466      9.30682      8.41871         0.176111      0.532837      0.697659
O      13.02499      9.35338      8.50888        -0.124841      0.112552      0.455689
O       5.53860      1.77329      0.34403         0.180260      0.155072     -1.902050
O       5.53757      1.94033     12.49236         0.072878     -0.334891      0.399402
O       5.67341     13.13859      0.31997        -0.063218      0.099207     -1.205563
O       5.64913     13.11052     12.58743        -0.309688      0.033734     -0.662874
O       5.75110      1.92049      4.46050        -0.185309     -0.154847     -0.411136
O       5.56507     13.08950      4.42961         0.105555      0.011885      0.234080
O       5.67594      1.84094      8.48846         0.039395      0.199184     -0.817721
O       5.50478     13.19773      8.38305         0.574933     -0.330766      0.028432
O       5.40095      5.66069      0.21756         0.669676     -0.382720     -0.074761
O       5.59250      5.57189     12.53713        -0.177026      0.266605      0.224601
O       5.57900      5.50462      4.42407         0.218644      0.230977     -0.771104
O       5.65230      5.65058      8.46584        -0.305930      0.258656      0.344009
O       5.59852      9.38239      0.29105         0.256525     -0.333818     -0.401817
O       5.60618      9.39903     12.54557         0.062703      0.198086      0.256746
O       5.79798      9.30114      4.36881        -0.421718      0.748243     -0.101343
O       5.59615      9.26663      8.40530        -0.407337      0.713911      0.425245
O       9.30134      1.97825      0.23261         0.171648     -0.241329      0.082894
O       9.30287      1.93161     12.62539        -0.042058     -0.388106     -1.038740
O       9.30415     13.06266      0.25186         0.095305     -0.113412     -0.688530
O       9.40985     13.18158     12.74314        -0.510924     -0.134594     -1.385244
O       9.27255      1.66379      4.33856         0.357300      0.622384     -0.083859
O       9.48550     13.09718      4.34188        -0.154835     -0.248146     -0.139933
O       9.51394      1.87106      8.49517        -0.596584     -0.120523      0.442738
O       9.37388     13.07812      8.40736         0.108644      0.185262      0.737936
O       9.52121      5.62417      0.26179        -1.002935     -0.392278     -0.228186
O       9.41204      5.68959     12.53982        -0.325185      0.091025     -0.505605
O       9.42980      5.70471      4.40077        -0.043714     -0.399385     -0.582588
O       9.38129      5.66242      8.55187        -0.179135     -0.222483     -1.014428
O       9.29309      9.24075      0.20547         0.443126      0.703586      0.774584
O       9.26021      9.21821     12.55562         0.147407      0.393347     -0.928189
O       9.30173      9.32029      4.46493         0.565105      0.176087     -0.329409
O       9.29463      9.40845      8.50828         0.418675     -0.037125      0.311088
O       3.77012      1.91758      2.47600        -0.600271     -0.866596      0.068751
O       3.68589      1.98293     14.71045         0.731543      0.062616      0.016525
O       3.76989     13.25559      2.35925         0.038159     -0.367716      0.363385
O       3.71368     12.94654     14.76992         0.103131      0.170210     -0.338556
O      14.98869      1.85684      2.32161        -0.304623      0.295965      0.134604
O      14.93320      1.61491     14.78122         0.959490      0.058368      0.030639
O       0.01790     13.03039      2.41212        -0.925160     -0.128667     -0.141220
O      14.91739     13.20927     14.70478         1.036870      0.077545      0.582988
O       3.78755      1.68932      6.42245        -0.614900      0.127284     -0.160817
O       3.79075     13.39664      6.49064        -0.762896     -0.619850     -0.674170
O      14.95015      1.93506      6.40358        -0.431153      0.132842      0.434462
O       0.01767     13.09173      6.60242        -0.606079     -0.397656     -0.409000
O       3.71292      1.59365     10.42955        -0.287542      0.284611      0.675869
O       3.70297     13.18259     10.70561         0.811425      1.064536     -0.103449
O       0.03823      2.00282     10.54179        -1.182381      0.655939      0.309984
O      14.94879     13.00001     10.62304        -0.068135     -0.413574     -0.039753
O       3.73968      5.65195      2.42735        -0.279554      0.112360     -0.345598
O       3.63609      5.47188     14.65335         1.147485     -0.192672      0.278666
O      14.95891      5.39160      2.42853         0.373486      0.606952     -0.305466
O      14.95545      5.72347     14.55144        -0.789592      0.062145      0.340299
O       3.75166      5.70605      6.48086        -1.198397      0.349044      0.306299
O      14.98182      5.39238      6.47153        -0.553618     -0.200635     -0.106051
O       3.70207      5.88004     10.51079        -0.030915     -0.466027      0.323806
O       0.02323      5.34049     10.65295        -1.851652      0.515349     -0.065163
O       3.81299      9.21318      2.46812        -0.023138      0.122142     -0.050566
O       3.72756      9.48146     14.67760         0.939345      0.114092     -0.558379
O       0.13710      9.54520      2.27855        -0.592234     -0.135469      0.448734
O       0.01763      9.13495     14.67759        -1.098230      0.599839     -0.168176
O       3.70552      9.18705      6.31007         1.040449      0.137682      0.309447
O      14.98384      9.59957      6.69787         0.192903     -0.522683     -1.015370
O       3.61246      9.44720     10.63243         0.946320     -0.930401     -0.168552
O      14.90476      9.69064     10.44095         0.645995     -0.179889      0.476953
O       7.50273      1.91251      2.45263        -0.479851      0.190938     -0.487441
O       7.35365      1.69999     14.70557         0.618953      0.039797     -0.101342
O       7.53365     12.90074      2.44561         0.030686      0.271571     -0.115349
O       7.39441     13.28358     14.67031         1.247231      0.019662      0.253806
O       7.58431      2.07471      6.49864        -1.381766     -0.217472      0.201577
O       7.52928     12.96028      6.41593         0.291392     -0.447435     -0.152695
O       7.49259      2.07110     10.54969        -0.659005     -0.249746      0.090371
O       7.48770     12.99918     10.57104         0.039806      0.211098     -0.269822
O       7.41773      5.57824      2.35910         1.177430     -0.626654     -0.139701
O       7.45498      5.67097     14.71254        -0.313661      0.630557     -0.187011
O       7.46991      5.44551      6.53009         0.694867     -0.138315     -0.326234
O       7.42421      5.42720     10.48749         0.059069      0.172905      0.673180
O       7.53857      9.48530      2.33163         0.427414      0.055734      0.101190
O       7.51142      9.03147     14.57948        -1.036934      0.855510     -0.032553
O       7.54593      9.51840      6.49290        -0.360356      0.417984      0.136557
O       7.36009      9.48196     10.46937         1.670281      0.821530      0.612106
O      11.19141      1.73790      2.47845        -0.048852      0.088445     -0.588337
O      11.21040      2.08412     14.63308        -0.371581     -0.171687     -0.188829
O      11.29239     13.27422      2.32925        -0.742018     -0.544836      0.069521
O      11.21859     12.89365     14.74071        -0.355164     -0.257640      0.296668
O      11.16081      1.65754      6.37251         2.289029     -0.415707      0.379442
O      11.26700     13.21596      6.44108        -0.307019      0.316041      0.385753
O      11.23056      1.79338     10.69337        -0.367464      0.023079      0.162028
O      11.23321     13.28051     10.67782        -0.708506     -0.072707     -0.607449
O      11.21467      5.71717      2.28442         1.539862      0.481820      0.393135
O      11.19659      5.35013     14.66038         1.170853      0.025213     -0.407986
O      11.23102      5.85417      6.46235         0.458788     -0.360625      0.087993
O      11.23981      5.91399     10.43591        -0.315249      0.140889      0.702352
O      11.36941      9.20250      2.32391        -1.290503     -0.066846      0.272588
O      11.26233      9.38968     14.64870        -0.231927      0.641439      0.243124
O      11.29618      9.10044      6.43893        -0.681605      0.213520     -0.130415
O      11.17625      9.19261     10.62010        -0.513985     -0.248386      0.022279
O       1.98824      3.76191      2.54062        -0.574593     -0.714632     -0.820749
O       1.71284      3.68782     14.71011        -0.427625      0.609270      0.286485
O       1.93764     14.96456      2.40302        -0.720060      0.961314      0.373141
O       2.03672     14.95221     14.77948        -0.360666      0.488811     -0.225339
O      13.01692      3.73416      2.21036        -0.083549      0.243911      0.150665
O      13.34300      3.64506     14.65434        -0.250248      2.415450      0.189827
O      13.18762     15.00887      2.39652         0.325697     -1.047099      0.181715
O      12.91578     14.96005     14.64680        -0.196317      0.208500      0.074449
O       1.97878      3.72916      6.48923         0.193078     -0.449568      0.188510
O       1.70563      0.03153      6.59878         0.322643     -0.959712     -0.632296
O      12.97689      3.66724      6.56181        -0.321182      0.724617     -0.034443
O      13.16386     15.00735      6.31354         0.365204     -0.531131      0.333590
O       2.07707      3.75699     10.60165         0.027744     -1.475147     -0.409959
O       1.63635     14.99334     10.49068         0.128607      0.462551      0.684668
O      12.92782      3.79676     10.45844         0.171681     -0.383736      0.337207
O      13.26093     14.97967     10.59600        -0.043592     -0.150733      0.368811
O       1.82320      7.46313      2.34580        -0.470441      0.849358      0.105878
O       1.92933      7.52411     14.70215         0.417785     -1.250509     -0.186271
O      13.39210      7.47975      2.29905        -0.126050     -0.246144      0.606359
O      12.87130      7.48254     14.70400         0.732719     -0.593770     -0.735248
O       1.61073      7.45659      6.58122         0.291058      0.287119     -0.571113
O      13.33810      7.45353      6.55824         0.191262      0.001479     -0.643559
O       1.66536      7.48877     10.63649        -0.435168      0.945074     -0.036493
O      13.33404      7.52421     10.69677        -0.224608     -0.189144     -0.414264
O       2.06980     11.23801      2.46641        -0.051202     -1.211788     -0.005530
O       1.74689     11.24177     14.73264        -0.569269     -0.322764      0.132832
O      13.05974     11.17151      2.36610        -0.053293      1.831285     -0.046047
O      13.22779     11.19242     14.81601         0.204935     -0.495897     -0.066883
O       2.04594     11.26904      6.55604        -0.134298      0.056175     -0.132212
O      12.93460     11.17830      6.45617        -0.032024      1.062024      0.214536
O       1.99281     11.31836     10.54275        -0.751565     -0.739833      0.162127
O      12.80795     11.23852     10.57489         0.471236      0.559250     -0.239656
O       5.60523      3.72682      2.44454         0.090073      0.002945     -0.392215
O       5.72445      3.79049     14.71573        -0.452813     -1.244622     -0.207815
O       5.69527     14.93559      2.49422         0.359974      1.211147     -0.203125
O       5.43369     14.99689     14.49515        -0.494786      0.422674      0.479204
O       5.44786      3.79051      6.52961         0.315919     -1.779597      0.259328
O       5.90473      0.02705      6.43706        -0.059911     -0.268782     -0.067905
O       5.33454      3.76027     10.51431         0.112422     -0.202833      0.061391
O       5.74750     14.99818     10.51460         0.271330      0.751050      0.603793
O       5.69042      7.39332      2.49280        -0.011628      1.923889     -0.455252
O       5.40206      7.48310     14.71218         0.161049      0.488085     -0.405433
O       5.75231      7.51972      6.33778        -0.066722     -0.644303      0.533806
O       5.61429      7.58706     10.61940         0.405135     -0.743179     -0.044495
O       5.55635     11.22992      2.39574        -0.389524     -0.637757      0.084195
O       5.78950     11.23338     14.67185        -0.060769     -0.637692      0.021442
O       5.34671     11.22401      6.35781         0.511408      0.576147      0.540233
O       5.40824     11.31395     10.50862         0.555577      0.389176      0.053685
O       9.46917      3.78601      2.34572        -0.379858     -1.651677      0.479580
O       9.10485      3.71545     14.49410         0.006127      0.065468      0.751500
O       9.21121     14.94405      2.22228         0.189916     -0.039095     -0.013323
O       9.54746      0.00378     14.64334        -0.289471     -0.458665      0.535316
O       9.73809      3.69134      6.35455        -1.137020      0.860875     -0.218984
O       9.20184     14.93720      6.47395         0.090024     -0.197995     -0.001633
O       9.45532      3.82285     10.56741         0.523266     -0.953819      0.391127
O       9.27972      0.03610     10.68385        -0.362643     -0.989649     -0.496269
O       9.18531      7.49083      2.40661         0.681529      0.707745     -0.369559
O       9.47870      7.44706     14.70871         0.317068     -0.413461     -0.185512
O       9.22471      7.42035      6.53678        -0.274398      1.310767      0.230899
O       8.98066      7.53202     10.51521         0.489856     -0.071109      0.163413
O       9.55744     11.20115      2.31473         0.283772     -0.369387      0.371019
O       9.16820     11.16802     14.59911        -0.168934     -0.139979      0.262399
O       9.60641     11.18804      6.56030        -0.411678      0.481195     -0.506386
O       9.46203     11.25976     10.67928        -0.167504      0.426493     -0.371427
