  # total energy = -7858.66155218 
CRSYTAL
PRIMVEC
    15.010000000000000    0.0000000000000000    0.0000000000000000
     0.0000000000000000   15.010000000000000    0.0000000000000000
     0.0000000000000000    0.0000000000000000    16.400000000000000
PRESSURE
15.7546 15.649 8.41536 -0.129452 0.008381 -0.027091
PRIMCOORD
320 1
Pb       3.97905      3.69979      4.42361        -0.505889      0.647062     -1.774197
Pb       3.83383      3.79456      0.17445        -0.440385     -0.157033      0.319235
Pb       3.63128      0.16088      4.15471         1.115327     -0.452233     -0.119217
Pb       3.72508      0.01556     16.35363         0.025960      0.308858      0.585458
Pb      14.97737      3.64174      4.04944         0.316442      0.381944      0.000785
Pb       0.06121      3.72239     16.36477        -0.056405      0.177806      0.341781
Pb       0.04605      0.03891      4.17700        -0.507545     -0.373348     -0.550651
Pb      14.89655      0.01238      0.03772         0.234819      0.219952      0.060661
Pb       3.82087      3.66566      8.34751         0.192010      0.149313     -0.492399
Pb       3.80173     14.80358      8.34446         0.574180      0.795397     -0.602359
Pb       0.16370      3.79983      8.33426        -0.557175     -0.676821      0.303506
Pb       0.02591     14.87400      8.21815         0.052420      1.141612      0.945353
Pb       3.76156      3.75735     12.22416         0.081396      0.622127      0.128096
Pb       3.73559      0.00513     12.53265         0.481734     -0.935359     -1.018480
Pb       0.08764      3.69455     12.34477        -0.465380      0.302883     -1.249934
Pb       0.03310      0.03129     12.31764         0.215658     -0.489949     -0.269590
Pb       3.49463      7.53869      4.11609         0.835109     -0.798323     -0.213290
Pb       3.72829      7.37343      0.30307         0.353419      0.407481     -1.349975
Pb      14.85585      7.47721      4.12404         0.388235     -0.212779     -0.308384
Pb      14.93085      7.55715      0.06113        -0.499263     -0.389087      0.079135
Pb       3.69653      7.52119      8.05370         0.075403     -0.000562      1.098308
Pb      14.99349      7.48334      8.26417        -0.332293      0.252471     -0.245479
Pb       3.75544      7.60018     12.30273         0.206130     -0.402167      0.404289
Pb       0.09102      7.30765     12.36052        -0.598803      0.938735     -0.220218
Pb       3.50724     11.31363      4.21305         0.765250      0.024106     -0.774874
Pb       3.66423     11.06070     16.31975         1.108137      0.577841     -0.117223
Pb      14.93822     11.27303      4.10944        -0.085446     -0.006096     -0.571234
Pb      14.88634     11.37407      0.04279        -0.103773     -0.696749     -0.025619
Pb       3.66232     11.10249      8.31871        -0.116883      0.404944     -0.432792
Pb      14.97163     11.14278      8.25410         0.062226     -0.081750     -0.165492
Pb       3.72423     11.33103     12.37968        -0.354304      0.020489     -0.035395
Pb      15.00350     11.29162     12.33968         0.524838      0.398271      0.328790
Pb       7.57491      3.66295      4.22179        -0.705849     -0.136809     -0.946350
Pb       7.59392      3.84271     16.38452        -0.636838     -0.389316      0.311510
Pb       7.49091     14.93745      4.28005        -0.586434      0.105924     -0.790900
Pb       7.34306      0.03366      0.01845         1.415659      0.322894      0.230822
Pb       7.56394      3.65933      8.25340        -0.206544      0.207645     -0.234112
Pb       7.55326     14.94411      8.32555        -0.507379      0.291117     -0.419065
Pb       7.50653      3.71982     12.24566         0.664755      0.336234      0.409175
Pb       7.61650     14.82013     12.47790        -0.592503      1.181058      0.190956
Pb       7.25171      7.55608      4.05224         1.045921     -0.007611      0.464275
Pb       7.52403      7.51433      0.11287        -0.910264     -0.085026     -0.569649
Pb       7.47199      7.51147      8.41279         0.176432      0.167150     -0.806960
Pb       7.60382      7.40108     12.56207        -1.236964     -0.254337     -0.962395
Pb       7.41641     11.38459      4.11221         0.260007     -0.572554     -0.584977
Pb       7.52614     11.28862      0.12377         0.409460     -0.544164     -0.465471
Pb       7.38045     11.17694      8.33258         0.584716     -0.210957     -0.644195
Pb       7.53226     11.14146     12.41736         0.122732     -0.193780      0.247554
Pb      11.13256      3.74354      4.16861         0.705466     -0.217200     -0.631636
Pb      11.29619      3.80719     16.38397        -0.695548     -0.424695      0.571772
Pb      11.37053      0.04305      4.25841        -0.166102     -0.174355     -0.335157
Pb      11.03143     14.96618      0.17263         0.267350      0.146354     -0.846412
Pb      11.41778      3.80846      8.13806        -0.611092     -0.217045      0.594950
Pb      11.28880     14.86516      8.30131         0.262904      0.361984     -0.508783
Pb      11.36245      3.71896     12.22916        -0.353002      0.776380      0.053575
Pb      11.29910      0.16094     12.30693         0.004357     -0.666155      0.042824
Pb      11.16649      7.45221      4.22110        -0.033986     -0.048903     -0.516344
Pb      11.09345      7.49311      0.16750         0.815336      0.082887     -0.537227
Pb      11.07030      7.46532      8.20663         0.609212      0.004837     -0.287776
Pb      11.36355      7.33699     12.30489        -0.305627      0.263994      0.378395
Pb      11.26773     11.30866      4.19347        -0.487099     -0.448762     -0.441519
Pb      11.23013     11.12219      0.09238        -0.414292      0.460748     -0.447194
Pb      11.01909     11.11855      8.33603         0.327511      0.044208     -0.143150
Pb      11.19554     11.30119     12.26659         0.678210     -0.009074      0.251908
Ti       1.81719      1.82775      2.01840         1.120859      1.149250      0.181945
Ti       1.89443      1.87999     14.30331        -0.519151      0.127088      0.414821
Ti       1.85986     13.15543      1.93523        -0.082520      0.415204      1.610881
Ti       1.90966     13.13626     14.47385        -0.799500     -0.520121     -1.408835
Ti      13.05152      1.94506      2.03348         0.236914     -0.405815     -0.055561
Ti      13.13419      1.88564     14.31962        -0.817392      0.723666      0.171693
Ti      13.02159     13.16142      2.08064         0.647252     -0.858028     -0.090338
Ti      13.07920     13.20113     14.44472        -0.302231     -1.406272     -1.427719
Ti       1.88647      1.91167      6.20468        -0.122542     -0.635537     -0.012696
Ti       1.80979     13.16674      6.14054         1.045457     -0.378642      1.648589
Ti      13.20559      1.92853      6.22561        -1.347519     -1.515589     -0.493367
Ti      13.10279     13.02056      6.22595        -0.270823      0.794293     -0.338835
Ti       2.07982      1.81826     10.20363        -2.384416      0.604573      0.102844
Ti       1.97706     13.08399     10.19136        -0.525884     -0.153469      1.577375
Ti      13.21222      1.88616     10.20964         1.114398      0.839428     -0.211462
Ti      13.23404     13.20810     10.24141        -0.633084     -1.239272      0.380052
Ti       1.80294      5.62226      2.06906        -0.096885     -0.623232     -0.050448
Ti       1.91708      5.56542     14.29126        -0.085629      0.641973      0.867896
Ti      13.06415      5.64650      1.97834        -0.121059      0.080715      0.244538
Ti      13.18417      5.63256     14.31531        -0.882783     -0.100752     -0.188260
Ti       1.84813      5.60596      6.17587        -0.412237     -0.316976     -0.538514
Ti      13.18247      5.57060      6.13080        -1.181599      1.028546     -0.337900
Ti       1.90947      5.67665     10.16089        -0.228318     -2.137187      0.944527
Ti      13.19957      5.68171     10.14960        -1.245088     -0.890717      0.693585
Ti       1.90064      9.47298      2.00534        -0.610490     -0.541267      0.505573
Ti       1.77975      9.29460     14.52010         0.473208      0.655586     -2.220482
Ti      13.15415      9.37243      2.00063        -0.873111      0.286815      0.132081
Ti      13.10401      9.45540     14.17699        -0.531913     -0.478549      2.392014
Ti       1.79917      9.34924      6.16016        -0.383654      0.344400     -0.134748
Ti      12.99158      9.29952      6.08032         0.235053      0.370529      0.908804
Ti       1.84714      9.30753     10.35652        -0.134503      1.098028      0.078160
Ti      13.09658      9.44030     10.25291        -0.223411     -1.357840     -0.250567
Ti       5.65551      1.90107      2.09622        -0.953007      0.402637      1.028616
Ti       5.60705      1.88509     14.37873         0.688362      0.257760     -0.337920
Ti       5.53626     13.16047      1.85739         0.744706     -0.265256      1.360839
Ti       5.70494     13.06992     14.39411        -1.273423      0.336572     -0.799299
Ti       5.69187      1.88030      6.28393        -0.251784     -1.091816      0.358841
Ti       5.53580     13.04773      6.19228         0.048087      0.730892     -0.187822
Ti       5.78026      1.88704     10.42392        -1.401827     -1.749427     -0.919529
Ti       5.75445     13.08938     10.24800        -2.116402      1.015998      1.078219
Ti       5.53037      5.68604      2.25779         0.075804     -2.137200      0.071214
Ti       5.54888      5.60331     14.31847         0.544331     -0.116728     -0.404047
Ti       5.65241      5.78158      6.26557         0.330294     -1.697018     -0.957289
Ti       5.64371      5.68891     10.14942        -0.330265     -0.372707      1.323597
Ti       5.63231      9.40349      2.00474        -0.450294      0.030533     -0.570472
Ti       5.58783      9.28805     14.27630         0.553136      0.123092      1.909223
Ti       5.54172      9.41033      6.02320         0.576149      0.878330     -0.078178
Ti       5.57072      9.39224     10.27534        -0.012045     -0.450988      0.607563
Ti       9.34779      1.85020      1.99944         0.422014      0.680284      0.032791
Ti       9.37840      1.91711     14.36421        -0.498294     -1.351289      0.901929
Ti       9.36441     13.11446      2.14422        -1.305595     -0.522030     -0.792082
Ti       9.44088     13.08574     14.30325        -0.168718      0.271266      1.264457
Ti       9.47926      1.74234      6.18532        -0.110961      1.715239     -0.485109
Ti       9.26421     13.05272      6.23489         0.628973     -0.988876     -0.706272
Ti       9.50421      1.88409     10.16705        -0.047219      0.280408      0.978407
Ti       9.37537     13.12311     10.35043         1.264022     -0.639003     -0.476531
Ti       9.28594      5.60484      2.08592         0.227634     -0.436436      0.059105
Ti       9.39723      5.60710     14.41455         0.454151      0.311374     -1.052256
Ti       9.29670      5.53534      6.09054         0.353824      0.807693      0.449999
Ti       9.40097      5.64651     10.32256        -0.167333     -1.400107     -0.238397
Ti       9.34996      9.30119      2.06719         0.562764      1.120043      0.577923
Ti       9.40243      9.29658     14.29500        -0.153087      0.297329      0.811124
Ti       9.22933      9.32970      6.11098         0.124607      0.046678     -0.592778
Ti       9.32370      9.26040     10.35025        -0.062423      1.511531     -0.317998
O       1.78577      1.77478      0.15480        -0.284586     -0.032533     -0.035464
O       1.96243      1.92011     12.45008        -0.127013      0.050153     -0.118979
O       1.88590     13.19091      0.14773        -0.011530     -0.024760     -0.392177
O       1.85858     13.08584     12.57732        -0.040334      0.558195     -0.291822
O      13.19931      1.84251      0.17155         0.061193      0.300626     -0.532877
O      13.13150      1.92569     12.43999         0.186984     -0.332874      0.439535
O      12.92263     12.92256      0.14663         0.302991      0.994380      0.497200
O      13.14061     13.06845     12.56557         0.553870      0.714555     -0.397354
O       1.98263      1.90136      4.29645        -0.993813     -0.270942      0.372305
O       1.74618     13.26342      4.37862         0.405056     -0.754666     -1.061066
O      12.92012      1.87099      4.25717         0.874987     -0.053944      0.645685
O      13.15586     13.14326      4.34476        -0.027140     -0.471667     -0.163159
O       1.94662      1.85969      8.36473         0.046230     -0.011878     -0.425873
O       1.84359     13.14748      8.39347        -0.082660     -0.367976     -0.547628
O      13.00381      1.83013      8.38934         0.280355     -0.022965     -1.289998
O      13.32543     13.04594      8.33754        -0.948419      0.263424      0.383741
O       1.94938      5.56729      0.20306        -0.373720      0.368195      0.010156
O       1.89880      5.64403     12.40027        -0.066593     -0.309512      0.491373
O      13.14467      5.70930      0.11654         0.038128     -0.511684     -0.020301
O      13.24630      5.54246     12.40115        -0.358250     -0.121930      0.370781
O       1.67417      5.72135      4.36355        -0.191379     -0.227445     -0.712668
O      13.13575      5.57901      4.26703         0.108181      0.229964     -0.256012
O       1.73847      5.62818      8.34523         0.462756      0.138128     -0.927426
O      13.16177      5.62523      8.30426        -0.265981      0.162937     -0.456043
O       1.93314      9.47914      0.13350        -0.974186     -0.176402     -0.091540
O       1.85391      9.29989     12.56623        -0.217550     -0.049400     -0.112004
O      13.19780      9.37735      0.17163         0.076118      0.178167     -0.466054
O      12.95097      9.23081     12.45739         0.818115      0.844987     -1.839740
O       1.97015      9.31170      4.29508        -0.759133      0.477735     -0.115409
O      12.99763      9.24193      4.24264         0.164278      0.753968      0.388274
O       1.90250      9.35731      8.43344         0.110497     -0.027416      0.096086
O      12.95585      9.34268      8.37843         0.540681      0.264174      0.185650
O       5.51814      2.00108      0.32580         0.395983     -0.489907     -2.071621
O       5.64065      1.79032     12.39783        -0.257655      0.613385      1.441306
O       5.72677     13.09866      0.01528        -0.429064      0.206797      0.857697
O       5.49357     13.31937     12.50443         0.585514     -0.679635     -0.086132
O       5.62078      1.77114      4.38537         0.228860      0.193758      0.169015
O       5.69740     13.01653      4.37100        -0.311282      0.453284     -0.364215
O       5.68031      1.84415      8.32760        -0.250155      0.458359      0.381702
O       5.67051     13.09874      8.38345         0.207054     -0.139410      0.546002
O       5.43354      5.60383      0.40772        -0.064767     -0.404811     -0.833900
O       5.45167      5.67445     12.51203         0.080572     -0.843094     -0.579665
O       5.65884      5.76437      4.38011        -0.081490     -0.081676      0.233168
O       5.64639      5.65313      8.32141         0.228587     -0.158656     -0.242048
O       5.69645      9.19323      0.13502        -0.562700      0.811405      0.366950
O       5.62636      9.24818     12.48879        -0.001700      0.464504     -0.689320
O       5.48675      9.29723      4.16587         0.311464      0.546021      0.512790
O       5.48371      9.54133      8.42578         0.314167     -0.516269      0.131150
O       9.33515      2.01723      0.15909         0.216536     -0.831199      0.082600
O       9.26927      1.85041     12.57355         0.294158      0.193805     -0.626632
O       9.49992     13.06791      0.23145        -0.281142      0.096699     -0.871583
O       9.31381     12.97050     12.44716         0.098910      0.637010     -0.435126
O       9.50542      1.88073      4.22563        -0.428464     -0.255635      1.068345
O       9.30345     12.94672      4.27089        -0.173309      0.712779      0.748449
O       9.61720      1.91278      8.34077        -0.799154     -0.601373      0.619097
O       9.35323     13.11207      8.44313         0.134959      0.359904     -0.432208
O       9.24614      5.73255      0.18192         0.615099     -0.315294     -0.675237
O       9.48901      5.69484     12.52548        -0.738443     -0.419061     -0.308102
O       9.39965      5.51145      4.24127        -0.584049      0.188492      0.378840
O       9.22321      5.73678      8.44501         0.175639     -0.537609     -0.131074
O       9.23366      9.12375      0.18013         0.521345      0.633960     -0.637344
O       9.24838      9.17759     12.40373         0.664590      0.821471      0.161677
O       9.24037      9.35551      4.23259         0.733060      0.221645      0.068600
O       9.22169      9.24808      8.31540         0.826801      0.443226      0.446085
O       3.75323      2.13536      2.22623        -1.694446     -0.604817      0.359953
O       3.68101      1.44866     14.55267         1.370549      0.624454     -0.022896
O       3.72239     12.82245      2.20250         0.953092      0.863767     -0.187306
O       3.73267     13.52960     14.55229         0.498061     -0.352515      0.209843
O      14.89793      1.50565      2.28343         0.788952      0.358941      0.058108
O      14.99762      2.32483     14.32929        -0.088150     -0.759355      0.816278
O      14.97706     13.30592      2.23164        -0.449416      0.290547     -0.292282
O      14.96255     12.82873     14.67576        -0.382552      0.630792     -0.167045
O       3.59661      2.39153      6.31165         2.627687     -1.112441      0.729853
O       3.74396     12.61931      6.40668        -0.358963      0.676326     -0.214271
O      14.95453      1.43645      6.37506         0.871681      0.406308     -0.321552
O       0.03140     13.55974      6.41291        -0.720363     -1.032747     -0.897006
O       3.82739      2.31278     10.35703         0.423640     -0.520694      0.185703
O       3.78170     12.68824     10.36014         0.517832      0.917286      0.042223
O       0.00684      1.55480     10.35596         1.069111      0.060739      0.587348
O       0.06549     13.44251     10.43389        -0.408027     -0.159465      0.406143
O       3.56710      5.40790      2.58547         0.917546      0.184363     -0.695281
O       3.71056      5.97717     14.47927        -0.940728      0.235914      0.388476
O      14.99447      6.10676      2.08887        -0.821496     -0.853571      0.691169
O      15.00173      5.20676     14.49513         0.628654     -0.100194     -0.106233
O       3.67670      5.35258      6.33130         1.050266      0.286213      0.398598
O      14.92986      5.95572      6.32413         0.494101      0.353391      0.277341
O       3.75912      5.33997     10.23800         0.209068     -0.149725      0.672874
O      14.99573      5.91134     10.27083         1.073969      0.155960      0.572704
O       3.74126      9.68871      2.09323         0.043789      0.027727      0.349602
O       3.72368      8.97628     14.57986        -0.593797      0.651497     -0.073021
O       0.01821      9.26267      2.25071         0.083112     -0.194380      0.214989
O      14.90247      9.90922     14.48265         0.743132     -0.882619      0.415879
O       3.73274      9.86059      6.27422        -0.253370     -1.280506      0.287789
O      14.98939      8.86497      6.33765        -0.860053      1.074886     -0.423919
O       3.74256      9.69007     10.58812        -0.204556     -0.435158     -0.255764
O       0.01299      9.02928     10.40818        -0.834601      0.417469      0.152447
O       7.54407      1.88252      2.23315        -1.112837     -0.974257      0.596714
O       7.38915      2.10693     14.73918         0.244001      0.417033     -0.569883
O       7.47463     13.40503      2.22608        -0.895728     -0.420064      0.222394
O       7.50109     12.83802     14.35114         0.307605     -0.365566      0.345181
O       7.53833      1.53945      6.41335        -0.007224      0.116597     -0.273671
O       7.48000     13.49202      6.46223        -0.182241      0.313720     -0.423588
O       7.57201      1.67282     10.49397         0.943995     -0.157536     -0.595907
O       7.53880     13.54857     10.47411        -0.449777     -0.767126     -0.282837
O       7.43320      5.90815      2.21985        -0.558813      0.010584      0.386432
O       7.42973      5.17139     14.37589        -0.035972      0.762292      0.390892
O       7.52620      6.15978      6.38296        -0.506133     -1.055573     -0.293853
O       7.42371      5.90347     10.62696         1.501600     -0.460064     -0.614812
O       7.50154      9.07667      2.13573        -1.076144     -0.518837      0.443730
O       7.50752      9.69399     14.52710        -0.233322     -0.447281     -0.419061
O       7.43642      8.98913      6.28400        -0.740679     -0.025054      0.206316
O       7.45391      9.17401     10.39081         0.481520     -0.143721      0.152784
O      11.23958      2.17644      2.04334        -0.171868     -0.033043      0.436552
O      11.16220      1.50944     14.48026         1.060680      0.247664      0.152093
O      11.16108     12.83989      2.34827         1.554724      0.012234      0.006192
O      11.18561     13.61312     14.29062         0.668909     -0.400173      0.741882
O      11.26041      2.21675      6.35893         0.176541     -0.329038     -0.339183
O      11.21383     12.61342      6.31764         0.317727      0.875486      0.288772
O      11.36699      2.15346     10.50757        -1.749762     -0.475176     -0.033754
O      11.33078     12.87167     10.56805        -0.462410      0.619073     -0.912668
O      11.19628      5.23596      2.08295         1.149161      1.061796      0.377447
O      11.28167      6.02764     14.41065        -0.758793     -0.817093      0.977689
O      11.17457      5.18723      6.25912         0.378284      0.709487      0.264924
O      11.24317      5.32634     10.36306         0.514544      0.378328      0.160106
O      11.23333      9.60702      1.93825        -0.350595     -0.128240      1.150249
O      11.25503      8.95170     14.53516        -0.667578      0.191600      0.132917
O      11.10812      9.87278      6.28903         1.089685     -0.997155      0.035794
O      11.20494      9.68159     10.43956         0.003804     -0.380787     -0.203134
O       1.44225      3.71238      2.15437         0.027201      0.246345      0.231123
O       2.26679      3.78302     14.59869        -0.498930     -0.706730     -0.430237
O       2.03032      0.00672      2.38694         0.035313     -0.688395     -0.614162
O       1.59470      0.02661     14.45024        -0.934107      0.403800      0.412695
O      13.44009      3.78765      2.25882        -0.071339     -0.179741     -0.524499
O      12.56804      3.70687     14.51272         1.676274     -0.039887     -0.422811
O      12.69846     14.95102      2.19634         0.541161      0.766935     -0.157709
O      13.45060      0.03832     14.53449         0.005616      0.116870      0.014001
O       1.43712      3.73632      6.30246         0.026460      0.106880      0.042649
O       2.45678     14.93438      6.33253        -1.510747      0.945582     -0.079048
O      13.46151      3.74604      6.32670        -0.149817     -0.655602      0.269243
O      12.74083     14.94609      6.25216         0.068400      0.124231      0.754810
O       1.62074      3.73159     10.31922         0.140134      0.234551      0.378755
O       2.23383      0.00045     10.39892         0.039075     -0.623607      0.435285
O      13.52491      3.77153     10.36567        -0.726633     -0.355856      0.080004
O      12.85771     15.00837     10.35963         0.110902     -0.388653      0.259023
O       2.12861      7.57889      2.10500        -0.233765      0.096393      0.487431
O       1.25618      7.52718     14.54118         1.392829     -0.826174     -0.160275
O      12.78772      7.53148      2.16235         0.329438     -0.762755      0.359888
O      13.54456      7.40598     14.32145        -0.166650      1.604740      0.570687
O       2.17409      7.48856      6.35780        -0.040585      0.390723      0.150888
O      12.66194      7.47777      6.23595         0.216339      0.001746      0.420989
O       2.16589      7.44818     10.34995         0.235486      1.344910      0.400408
O      12.74356      7.45194     10.45140         0.862857      1.001906     -0.699193
O       1.77428     11.36246      2.41995        -0.931267     -1.146395     -0.218970
O       2.12629     11.29696     14.50366         0.252084     -1.057524      0.517471
O      13.31270     11.26612      2.29880        -0.306033     -0.193248      0.231120
O      12.60229     11.27782     14.44621         0.696041     -0.324863      0.043234
O       1.46223     11.16842      6.33324         0.108564      1.111268     -0.096897
O      13.59674     11.17202      6.29672        -0.625978      0.122884     -0.155412
O       1.61468     11.26291     10.61487        -0.027334     -0.621206     -0.876238
O      13.42271     11.25295     10.45977        -0.044621     -0.159353     -0.046531
O       5.69721      3.75119      2.58292         0.452228      0.715131     -0.382016
O       5.15118      3.69417     14.65481         0.548753      0.130706     -0.803085
O       5.42040     15.00538      2.15462         0.018313     -0.491873      0.150548
O       6.02481      0.00390     14.58169        -1.508575      0.307763     -0.216974
O       5.96900      3.83539      6.26633        -0.202137     -0.550462      0.400130
O       5.27283     15.00486      6.28664         0.124783     -0.133522      0.476941
O       6.03328      3.75761     10.41883        -1.049130      0.418718     -0.213825
O       5.24009      0.01576     10.37125         0.869390     -0.447496     -0.010172
O       5.16755      7.48609      2.21015         0.605239      0.856140      0.716244
O       5.91440      7.43310     14.42216         0.224844      0.182925      0.667197
O       5.27189      7.58963      6.32727        -0.363886     -0.085282      0.390178
O       5.37537      7.50262     10.41242        -0.355592      0.534661     -0.294025
O       5.94171     11.21367      2.03523        -0.324020      1.103589      0.188629
O       5.28028     11.25537     14.44784         0.118978     -0.629068      0.032428
O       6.04286     11.20694      6.35375        -0.393158      0.200416     -0.143252
O       5.98744     11.25223     10.66985        -0.627202      0.590002     -0.785335
O       9.12784      3.80020      2.19473        -0.142326     -0.761854      0.413071
O       9.51038      3.75770     14.68249         0.581818      0.066468     -0.349412
O       9.53564     14.98123      2.08640         0.318188      1.144571      0.578579
O       8.96928     14.94312     14.56820         0.215893      0.437748      0.191045
O       9.01684      3.65717      6.41466         0.093155      1.094722     -0.496292
O       9.68903     14.95879      6.28233         0.167339     -0.630612      0.352080
O       9.31202      3.77522     10.59715        -1.154186     -1.204486     -0.452686
O       9.66267      0.01642     10.51769         0.123406      0.503965     -0.461175
O       9.63172      7.44325      2.27695         0.112821      0.497571      0.220289
O       8.91629      7.41594     14.45723         0.531630      0.997047      0.876026
O       9.74189      7.47018      6.16218        -0.132304      0.063865      0.529029
O       9.66903      7.48557     10.32777        -0.051719      0.251584      0.498090
O       9.01841     11.22894      2.07745         0.288911     -0.803952      0.363796
O       9.68973     11.18868     14.48386        -0.179886     -0.137899      0.047821
O       8.74566     11.28069      6.28534         1.189752     -0.781053      0.536210
O       9.17634     11.28357     10.35518        -0.356242     -0.849515      0.435886
