  # total energy = -7880.66093119 
CRSYTAL
PRIMVEC
    15.2000000000000000    0.0000000000000000    0.0000000000000000
     0.0000000000000000   15.2000000000000000    0.0000000000000000
     0.0000000000000000    0.0000000000000000    17.000000000000000
PRESSURE
7.76807 7.33153 3.98139 -0.125444 0.26506 0.021286
PRIMCOORD
320 1
Pb       3.65143      3.86787      4.26640         0.147368      0.137507      0.381970
Pb       3.92980      3.89778      0.07797        -0.724434     -0.156609     -0.777345
Pb       3.60517      0.18857      4.36702         0.543792     -0.588114      0.205269
Pb       3.91965     15.19290      0.00350        -0.453876     -0.657176     -0.132892
Pb      15.13487      3.91021      4.16029        -0.095268      0.417148      0.324918
Pb       0.09821      3.71530     16.95150        -0.029423      0.445483     -0.302998
Pb      15.17001      0.26225      4.40725         0.028439     -0.580198     -0.272182
Pb       0.06647     15.12810     16.86823        -0.543697     -0.118734      0.823253
Pb       3.92929      3.78940      8.44501        -0.292806     -0.335665     -0.384393
Pb       3.80296     14.98317      8.69030         0.058941      0.469261     -0.947815
Pb       0.03212      3.73404      8.62467         0.046199     -0.053834     -0.529468
Pb      15.00299     15.07274      8.65638         0.264101      0.262123     -0.756575
Pb       3.82396      3.81655     12.64674        -0.257592     -0.261086      0.316750
Pb       3.83540     15.16030     12.74572        -0.000286     -0.026687     -0.172950
Pb       0.00656      3.68532     12.71076         0.209787      0.060825      0.484880
Pb       0.08760     15.16616     12.82216        -0.723987      0.286217     -0.352570
Pb       3.63752      7.75942      4.32527         0.111752     -0.726567     -0.280562
Pb       3.92535      7.63937      0.02976        -0.779390     -0.111484      0.212252
Pb      15.09976      7.85468      4.23476         0.199591     -0.940497      0.099637
Pb       0.07997      7.62260     16.83979        -0.147870     -0.300747      0.515394
Pb       3.76949      7.59652      8.37955         0.008166     -0.296899     -0.154723
Pb      15.06104      7.48241      8.51660         0.243958      0.207524     -0.123660
Pb       3.82025      7.46281     12.56506        -0.020186      0.390948      0.862453
Pb      15.12795      7.36135     12.65318         0.577534      0.586150      0.941815
Pb       3.51710     11.50720      4.32446         0.324370     -0.327312      0.192827
Pb       4.02964     11.40967      0.29815        -0.759287      0.076416     -1.024368
Pb      15.07118     11.55052      4.20599        -0.076834     -0.561922     -0.120959
Pb       0.13188     11.42102     16.92995        -0.035658     -0.228399      0.360528
Pb       3.73241     11.38631      8.52874        -0.055092      0.032067     -0.361647
Pb      14.99588     11.40539      8.54237         0.387193     -0.184701      0.169688
Pb       3.73862     11.29047     12.72948        -0.072196     -0.186765     -0.338206
Pb      15.19286     11.11383     12.83008         0.022299      0.597540     -0.321547
Pb       7.56469      3.76773      4.14076         0.327726      0.043808      0.718890
Pb       7.54888      3.77330      0.02565         0.300586      0.003047     -0.114180
Pb       7.59466     15.18780      4.21834         0.067569      0.417038     -0.329215
Pb       7.63495     15.13465      0.01742         0.002510     -0.164334     -0.046517
Pb       7.68958      3.82662      8.30281         0.140519     -0.001321      0.546787
Pb       7.60107     15.08875      8.33932         0.171780      0.509640      0.935776
Pb       7.52070      3.83416     12.75018         0.741406      0.178752     -0.191643
Pb       7.57270      0.00519     12.76784         0.799806     -0.416659     -0.140056
Pb       7.71200      7.66625      4.28702        -0.506767     -0.345230     -0.560200
Pb       7.45926      7.71734      0.03714         0.920359     -0.167563     -0.208338
Pb       7.55260      7.61858      8.34800         0.182549     -0.060375      0.485382
Pb       7.47209      7.49614     12.65379         0.564158      0.207729      0.425084
Pb       7.51924     11.38276      4.23650         0.102570     -0.216890     -0.178524
Pb       7.65671     11.42401      0.02348        -0.224730     -0.243265     -0.399680
Pb       7.51370     11.54052      8.46231        -0.054859     -0.900161      0.269981
Pb       7.43826     11.25155     12.68330         0.749771     -0.029460     -0.005039
Pb      11.43683      3.71297      4.10349        -0.100972      0.702758      0.414563
Pb      11.41985      3.66716      0.00068         0.042394      0.277478     -0.199884
Pb      11.48075      0.01322      4.15193        -0.323033     -0.353687     -0.096923
Pb      11.50087     15.10267     16.90973        -0.508869      0.265727     -0.047483
Pb      11.39208      3.80632      8.44615        -0.412964     -0.008439     -0.158375
Pb      11.25227     15.18956      8.39415         0.383360      0.116792      0.503201
Pb      11.37342      3.76775     12.80912        -0.187901     -0.444437     -0.091064
Pb      11.40449     15.09293     12.77027         0.159676      0.593266      0.040989
Pb      11.43512      7.78971      4.09623         0.234146     -1.168249      0.378025
Pb      11.32248      7.52836     16.91272         0.165692     -0.295488      0.445741
Pb      11.26724      7.49192      8.51119        -0.162219      0.053909      0.008337
Pb      11.30696      7.43969     12.80798        -0.151931     -0.030237      0.218139
Pb      11.41319     11.35380      4.12241         0.276716      0.462564      0.133131
Pb      11.39580     11.48235     16.92043         0.039955     -0.087867     -0.056055
Pb      11.26923     11.49690      8.50000         0.257291     -0.412933      0.074691
Pb      11.37596     11.34202     12.72752        -0.185217     -0.017218      0.201633
Ti       1.89918      1.94123      2.14090         0.198325     -0.128474     -0.357793
Ti       2.05628      1.80591     15.00985        -0.954379      1.166410      0.715994
Ti       1.78143     13.37192      2.28611         0.337118     -0.276186     -0.153914
Ti       1.90984     13.20624     14.92517         1.369315      0.611864      1.586386
Ti      13.35494      1.84907      2.17684        -0.367832     -0.018799     -0.378692
Ti      13.38943      1.84428     15.04467        -0.739233      0.199323     -0.378234
Ti      13.22508     13.24828      2.09252         0.219710      0.190542      0.002865
Ti      13.37496     13.21014     14.86152        -1.282516      0.694412      0.416034
Ti       1.88024      1.83221      6.68562         0.233449      0.109444      0.591256
Ti       1.79823     13.28063      6.58028         0.336539      0.100876      0.189642
Ti      13.26931      1.91425      6.54753         0.038354     -0.002953      0.069765
Ti      13.18758     13.25053      6.44849         0.760207      0.691832     -0.018657
Ti       1.95302      1.82008     10.77923        -0.130739      0.691801     -0.422662
Ti       1.84567     13.29034     10.75844         0.484808     -1.411540      0.590516
Ti      13.25697      1.88970     10.72196        -0.085744     -1.135505      1.713812
Ti      13.30958     13.26367     10.83569        -0.047253      0.106615      0.373211
Ti       1.88199      5.72152      2.18391        -0.822707      1.175952      0.746632
Ti       1.90948      5.65923     14.94017         0.302847     -0.730466     -0.253762
Ti      13.29061      5.66940      2.13460        -0.417278      0.528165     -0.304991
Ti      13.36031      5.65537     15.02122        -0.771079     -0.200860      1.113781
Ti       1.83475      5.62616      6.46398         0.322758      0.482274     -0.250290
Ti      13.28404      5.71410      6.48068        -0.718994     -1.192807     -1.150589
Ti       1.91569      5.67008     10.70097        -0.600765     -1.026235     -0.160230
Ti      13.25884      5.62288     10.75801         0.235283     -0.068582      1.120127
Ti       1.87722      9.51870      2.27282        -0.311594     -0.108791     -1.080048
Ti       1.91664      9.46403     14.97231         0.967350      0.265135     -0.154464
Ti      13.32261      9.43038      2.01004         0.420595      1.664183      1.135118
Ti      13.30295      9.46410     14.93713         0.369366     -0.544320      1.125919
Ti       1.76403      9.46358      6.62985         0.408587      0.462990     -0.192812
Ti      13.15658      9.45167      6.58327         0.882739      0.569357     -0.590149
Ti       1.82105      9.42410     10.66138         0.803518      1.086560      0.249112
Ti      13.21514      9.41169     10.80485         0.700829      0.555408     -0.145286
Ti       5.60078      1.89286      2.28314         0.758896     -0.722583      1.155699
Ti       5.75566      1.85508     14.90589        -0.224692      0.238410     -0.122318
Ti       5.53922     13.33422      2.35997         0.654485     -0.058368      0.625803
Ti       5.68097     13.24063     14.96270        -0.324027     -0.395349      0.344528
Ti       5.72782      1.77830      6.47633        -0.796132      1.013600      0.031635
Ti       5.65175     13.23100      6.34794        -0.990494      0.032869      1.439484
Ti       5.77397      1.86508     10.73195        -0.342126     -0.189645     -0.209909
Ti       5.69505     13.23860     10.82124         1.007687     -0.001081     -0.451450
Ti       5.65593      5.67786      2.35733         0.336919      1.630817      0.924372
Ti       5.69707      5.70740     14.98574        -0.431877     -0.406617     -1.503002
Ti       5.71370      5.67392      6.38891        -0.370542     -0.249883      0.329156
Ti       5.69638      5.60128     10.53376         0.928626      1.159597     -0.195871
Ti       5.66718      9.49802      2.37633         0.056052     -0.163871      1.003003
Ti       5.68302      9.49243     15.00993         0.614023      0.541855     -0.153199
Ti       5.59246      9.46599      6.37236         0.867380      0.447641      0.735815
Ti       5.58889      9.40304     10.61595         1.877892      0.088010     -0.164829
Ti       9.47306      1.83245      2.19412         0.000889      0.046453      1.761608
Ti       9.44739      1.84690     14.95568         0.860813     -0.039364      0.281905
Ti       9.39888     13.20382      2.24487         0.904603      1.218092     -0.469709
Ti       9.46334     13.24723     14.89843         0.234715      0.364646     -0.240024
Ti       9.48778      1.92480      6.36021         1.353776     -0.028479     -0.632952
Ti       9.43904     13.27376      6.35694         1.817810      0.183207     -0.166050
Ti       9.48160      1.81370     10.77991         0.450915      0.396606      0.085807
Ti       9.56100     13.23513     10.74252        -1.494005      0.212374      0.784155
Ti       9.50497      5.61435      2.21846         0.059676      1.193112      0.177724
Ti       9.42515      5.62519     15.11186         0.598799      0.854146     -1.006417
Ti       9.52821      5.72867      6.21395         0.687355     -0.623974      1.806638
Ti       9.49768      5.61750     10.73669        -0.797382     -0.719537     -0.504243
Ti       9.52726      9.47049      2.19347        -0.089098     -0.493114     -1.166023
Ti       9.57791      9.45744     15.03037        -1.562940     -0.003174      0.147532
Ti       9.44033      9.50393      6.53290        -0.395770     -0.073116      0.288339
Ti       9.50394      9.41727     10.82126        -1.086360     -0.480244     -0.959846
O       2.05586      1.98026      0.33854        -0.448482     -0.443411      1.366112
O       2.03212      1.87255     13.24903        -0.213995     -0.399449     -0.619762
O       1.88101     13.36029      0.52938        -0.012518     -0.181986      0.150633
O       1.93661     13.29864     13.18768         0.088819     -0.323022     -0.980992
O      13.33752      1.76987      0.38367         0.068958      0.538956      0.728062
O      13.31063      1.83101     13.28786         0.198368      0.070974     -0.055663
O      13.16354     13.27702      0.26474         0.466519     -0.325703      1.108127
O      13.33492     13.15701     13.08061        -0.098977      0.609977      0.285770
O       1.88390      1.87723      4.89640        -0.346803      0.063506     -0.302623
O       1.87477     13.27244      4.78863        -0.508333      0.259882     -0.314962
O      13.30099      1.91470      4.72199         0.160996     -0.238253      0.116627
O      13.18186     13.39025      4.67598         0.348889     -0.541823     -0.130826
O       1.85019      1.76383      9.00457         0.280991      0.332734     -0.087867
O       1.95480     13.22924      8.99942        -0.295143      0.332832     -0.591031
O      13.22951      1.81332      8.98777         0.193476      0.071077     -0.914416
O      13.24647     13.31455      9.04797         0.083638     -0.431481     -0.316798
O       1.85902      5.70771      0.41124         0.235967      0.046490     -0.040874
O       1.76552      5.56950     13.13698         0.926874      0.193653      0.436117
O      13.23172      5.66289      0.35895         0.246184     -0.126448     -0.020981
O      13.33538      5.72441     13.27142         0.041159     -0.333112     -1.172143
O       1.85086      5.71625      4.65271         0.046778     -0.275687      0.776956
O      13.25477      5.70182      4.70068         0.081238      0.001964     -0.041315
O       1.78981      5.60529      8.93377         0.221877      0.315573      0.190894
O      13.25149      5.64733      9.03191         0.220304      0.015848     -0.766112
O       1.91536      9.40586      0.47093        -0.379875      0.485964      0.028224
O       1.88552      9.58531     13.18060         0.548413     -0.051996      0.313046
O      13.44417      9.62735      0.29240        -0.108979     -0.304606     -0.726550
O      13.37068      9.34365     13.18808        -0.177899      0.452711     -0.734953
O       1.78134      9.48284      4.81876         0.020038     -0.145765      0.085008
O      13.35470      9.56742      4.76930        -0.658599     -0.445514      1.006572
O       1.98432      9.49376      8.87578        -0.368824     -0.487519      0.046969
O      13.32944      9.48208      9.04859        -0.301466     -0.196620     -0.864930
O       5.53808      1.77500      0.53581         0.406584      0.687685     -0.354391
O       5.80733      1.95389     13.08424        -0.411309     -0.310781      1.471286
O       5.67425     13.33326      0.58448        -0.163861      0.053629     -0.481942
O       5.66101     13.09283     13.19157         0.053736      0.357047     -0.593354
O       5.74401      1.84140      4.70568        -0.090626     -0.082996      0.183963
O       5.58834     13.17532      4.61923         0.422628      0.299076     -0.411567
O       5.68362      1.84530      8.96565         0.288459     -0.306961     -0.198735
O       5.73576     13.28472      9.01872         0.061146      0.086360     -0.174205
O       5.59905      5.73085      0.57569         0.384997     -0.185155     -0.494565
O       5.78219      5.59323     13.14953        -0.761548      0.317813      1.254027
O       5.73047      5.75117      4.63503        -0.310116     -0.303221     -0.169191
O       5.87949      5.67060      8.73151        -0.835450     -0.143722      0.773333
O       5.58895      9.51267      0.59637         0.413977     -0.311404     -0.839611
O       5.70147      9.51175     13.23583        -0.433337      0.070744     -0.004050
O       5.72648      9.58663      4.59454        -0.108691     -0.082872      0.171359
O       5.77605      9.35533      8.81623        -0.738270      0.268422      1.028721
O       9.39202      1.91380      0.49108         0.140444      0.111876     -1.499943
O       9.35513      1.84886     13.17985         0.309498     -0.094183      0.632642
O       9.43481     13.20867      0.41922         0.008846      0.036427      0.544996
O       9.52253     13.27811     13.10381        -0.119349     -0.227509      0.869034
O       9.47608      1.98371      4.55273         0.107442     -0.692235      0.701210
O       9.52367     13.32173      4.59964        -0.100042     -0.266583     -0.275568
O       9.56487      1.83439      9.00569        -0.029389      0.071682      0.076444
O       9.53300     13.29732      8.95682        -0.081391     -0.281348     -0.719863
O       9.59075      5.65440      0.42833        -0.622215     -0.104746     -0.629342
O       9.39835      5.65350     13.27601         0.124948      0.004622      0.839256
O       9.57038      5.67369      4.47230         0.042089      0.328087      0.676943
O       9.52326      5.54783      8.93605         0.055896      0.279467      0.812543
O       9.48419      9.47266      0.39153        -0.013600      0.375760      0.901318
O       9.47414      9.37288     13.27531         0.335085      0.047078     -0.856590
O       9.49153      9.52187      4.77983         0.370578     -0.090147     -0.995957
O       9.47782      9.35750      9.02864         0.003977      0.285103     -0.014704
O       3.70695      1.98984      2.71559         0.329083     -0.113579     -0.146329
O       3.88022      1.75180     15.32622         0.779919     -0.180410     -0.187754
O       3.69589     13.28122      2.69314        -0.098180     -0.241718     -0.258309
O       3.82010     13.33875     15.38842        -0.219231      0.382858     -0.243910
O       0.07767      1.93909      2.68319        -0.739966     -0.087828     -0.489016
O       0.07205      1.90761     15.39277         0.035716      0.000878     -0.212060
O      15.11737     13.19608      2.43860         0.148615      0.375950      0.422380
O       0.00787     13.18271     15.29550         0.209747      0.053658     -0.031817
O       3.80866      1.77884      6.84141         0.172822      0.188719      0.169962
O       3.79037     13.25804      6.84836         0.304659      0.233063      0.192557
O      15.12239      1.88612      6.96954         0.716307     -0.318801     -0.082276
O      15.15688     13.16596      6.98241        -0.251273      0.580932     -0.352737
O       3.85471      1.71517     11.11955         0.040284     -0.072899      0.057143
O       3.78990     13.38077     10.96662         0.330228      0.134823      0.706409
O       0.07022      1.95110     11.16311        -0.948607     -0.376217     -0.292078
O      15.19358     13.19456     11.10722        -0.001446      0.032171     -0.089316
O       3.71874      5.83054      2.58820         1.160135     -0.607438      0.278475
O       3.80594      5.83043     15.35561        -0.167735     -0.315190     -0.056490
O      15.12825      5.72619      2.55714         1.143900      0.115070     -0.004917
O       0.06856      5.52408     15.37539        -0.495408      0.358793      0.031435
O       3.81092      5.60802      6.73989        -0.013510      0.067997      0.244547
O      15.13805      5.69696      6.78332         0.927512     -0.080056      0.582805
O       3.80061      5.67758     10.94656         0.016152      0.325175      0.229876
O       0.02183      5.44959     11.09590        -0.671781      0.696057     -0.264136
O       3.73513      9.56509      2.67170         0.937212      0.065702      0.124166
O       3.84963      9.38618     15.46727        -1.037812      0.273011     -0.540966
O      15.16218      9.56149      2.68593        -0.317401     -0.091040     -0.616039
O       0.04540      9.64851     15.20366        -0.353179      0.040657      0.515982
O       3.76478      9.46580      6.80754        -0.207582     -0.223634      0.030928
O      15.11538      9.36110      6.94721        -0.060885      0.235697      0.045767
O       3.80903      9.38729     11.13103        -0.701426      0.038143     -0.305777
O       0.02941      9.53754     11.12952        -0.648555     -0.345268     -0.394277
O       7.54323      1.89406      2.59580        -0.172954     -0.347313     -0.275502
O       7.57475      1.97681     15.45882        -0.560616     -0.158468     -0.229354
O       7.56609     13.43269      2.66463        -0.082945     -0.665219     -0.228940
O       7.57800     13.13779     15.35000         0.325850      0.249138     -0.061556
O       7.74548      1.87969      6.89944        -1.866344     -0.523139     -0.381295
O       7.63992     13.28987      6.73836        -1.653927      0.016395      0.096807
O       7.61231      1.98460     11.10535        -0.490264     -0.248134     -0.159210
O       7.65481     13.10236     11.05304        -0.739161     -0.091060      0.161255
O       7.60985      5.77073      2.67854        -0.449665     -0.135087     -0.633039
O       7.51982      5.64657     15.35973         0.548168     -0.121362      0.729768
O       7.66660      5.63142      6.72324         0.061450      0.299294     -0.524537
O       7.51332      5.61207     11.03346         0.661458     -0.188632     -0.056976
O       7.70192      9.53588      2.64244        -0.818570     -0.265957     -0.037985
O       7.60317      9.58894     15.33598        -0.645474      0.138857      0.563168
O       7.51694      9.42796      6.77383         0.516755     -0.033335     -0.088858
O       7.56404      9.36821     11.11814        -0.132637      0.527687     -0.126764
O      11.44054      1.93468      2.55295         0.158492     -0.139039     -0.440364
O      11.36689      1.87492     15.39159         0.030407     -0.436801     -0.287399
O      11.39691     13.24642      2.51736        -0.405441      0.424007      0.096559
O      11.39131     13.47316     15.26286        -0.386224     -0.769546     -0.354442
O      11.40000      1.87408      6.90955         0.026133     -0.060205     -0.358801
O      11.34137     13.16716      6.77517        -0.177872      0.067262      0.359727
O      11.37217      1.75432     11.25966         0.078790      0.390049     -0.417239
O      11.40101     13.37390     11.12026         0.057781     -0.297477      0.141736
O      11.38897      5.60170      2.51089         0.913525      0.110096      0.165962
O      11.33880      5.87990     15.25392         0.344863     -0.736431     -0.000214
O      11.41685      5.67515      6.87097        -1.025595     -0.135289     -0.212824
O      11.39066      5.61528     11.18192         0.216067      0.340576     -0.084632
O      11.44466      9.52424      2.45698         0.048713      0.008759      0.366847
O      11.46396      9.36215     15.31018        -0.384769      0.151515     -0.035319
O      11.32341      9.42801      6.93996         0.753940      0.703840     -0.043086
O      11.40564      9.28709     11.16019        -0.702453     -0.043002      0.202686
O       1.92246      3.86511      2.58465        -0.274404     -0.851953     -0.156431
O       2.06408      3.74913     15.31480        -0.021327      0.204372      0.198086
O       1.90258      0.06562      2.80622        -0.509237     -0.050367     -1.082989
O       1.79643     15.11394     15.44479         0.775722      0.383263     -1.012916
O      13.35639      3.80599      2.51981         0.022467     -1.142264      0.011550
O      13.29728      3.77618     15.32437        -0.334315     -0.382769      0.366606
O      13.36042     15.16039      2.55199        -0.180692      0.691240      0.064658
O      13.39018     15.11430     15.35337         0.123644      0.488246     -0.351677
O       1.94702      3.78810      6.96866        -0.531496     -0.539262     -0.102472
O       1.82633     15.13612      7.04424        -0.036748      0.152221     -0.462414
O      13.31414      3.77493      6.93823        -0.129881      0.028696     -0.160980
O      13.29798     15.08054      6.86056        -0.032877      1.177798      0.138033
O       2.04194      3.72151     11.07367        -0.023523      0.226542     -0.021661
O       1.80186     15.14704     11.23434         0.412162     -0.023256     -0.300227
O      13.20814      3.71090     11.15355         0.119933      0.728086      0.021599
O      13.32780      0.02140     11.18598         0.578601     -0.746181     -0.064839
O       1.95824      7.68059      2.61435        -0.847960     -0.907142      0.297360
O       1.72482      7.59697     15.14579         0.361800     -0.175223      0.340036
O      13.30208      7.63848      2.42884        -0.207111     -0.569779      0.327269
O      13.40219      7.53620     15.36369         0.431414      0.876746     -0.117070
O       1.91350      7.50197      6.92075        -0.125528      0.521506     -0.156358
O      13.19096      7.52396      6.97390         0.398290      1.406694     -0.105741
O       1.91514      7.56775     11.12323        -0.433110     -0.594448     -0.472246
O      13.39413      7.54600     11.16738        -0.226793     -1.147180     -0.687482
O       1.81977     11.37784      2.69136         0.059118      1.154432     -0.125508
O       2.02447     11.42485     15.41932        -0.161342     -0.908510     -0.196749
O      13.22446     11.38425      2.56001         0.326954      0.003126     -0.153169
O      13.19536     11.39217     15.17936        -0.110046     -0.498735      0.183925
O       1.92759     11.39176      6.88582        -0.274202     -0.862293      0.181643
O      13.30424     11.42347      6.89688        -0.392307     -1.848721      0.165037
O       2.00216     11.32001     10.98340         0.088949      0.456749      0.482942
O      13.10861     11.33811     11.12778         0.539032     -0.125540     -0.157885
O       5.69440      3.81794      2.74436        -0.627391     -0.277497     -0.914242
O       5.64070      3.78719     15.37575        -0.191335     -0.450931      0.111145
O       5.52477      0.01058      2.74098         0.350550      0.581495     -0.282780
O       5.80403     15.13043     15.38838         0.063575      0.918892     -0.531730
O       5.71792      3.68217      6.79000         0.147578      0.641831      0.022717
O       5.72049     15.11571      6.86190         0.377538     -0.257942     -0.255230
O       5.56404      3.82070     10.96283         0.177885     -1.309692      0.070541
O       5.88210     15.13852     11.24602        -0.717669      0.033724     -0.737303
O       5.77342      7.66126      2.73954        -0.394238     -0.446658     -0.384117
O       5.74295      7.59259     15.34964         0.268517      0.066329      0.274474
O       5.62973      7.56551      6.75473         0.222432     -0.081616     -0.219077
O       5.67804      7.53254     11.11598        -0.195094     -0.259498     -0.654226
O       5.74717     11.43052      2.55242        -0.035881     -0.108446      0.170254
O       5.60186     11.41370     15.49797         0.064941     -0.663891     -0.022649
O       5.65338     11.36145      6.83112         0.504982      0.453533     -0.067846
O       5.65264     11.30435     11.01368        -0.195265     -0.003006      0.132255
O       9.43119      3.81973      2.60679         0.100087     -1.480721     -0.475682
O       9.49329      3.74321     15.43775        -0.064150      0.539502     -0.136836
O       9.55204     15.15929      2.48906        -0.163533      0.308822      0.293208
O       9.31422     15.18922     15.36420         0.287912     -0.332177     -0.259292
O       9.62305      3.78650      6.69748        -0.369537      0.530971      0.044983
O       9.62444     15.19134      6.71696        -0.684876     -0.503471     -0.064972
O       9.50997      3.73875     11.25220         0.214077      0.245625     -0.414838
O       9.34746     15.10309     11.10394         0.201068      0.652120      0.073434
O       9.69027      7.56062      2.62189        -1.007817      1.057151     -0.342927
O       9.33083      7.65706     15.54867         0.328020     -1.343973     -0.502926
O       9.59108      7.58703      6.84335        -0.689190     -0.802944     -0.564985
O       9.41864      7.43561     11.14606         0.441349      0.804597      0.050214
O       9.58605     11.36064      2.56378        -0.582257      0.211358      0.112478
O       9.59474     11.38633     15.32226         0.178403      0.231180     -0.044430
O       9.38306     11.38433      6.84306         0.418904      0.062050      0.261471
O       9.60653     11.28391     11.08073         0.185571      0.291475      0.002736
