  # total energy = -7878.94539203 
CRSYTAL
PRIMVEC
    15.2000000000000000    0.0000000000000000    0.0000000000000000
     0.0000000000000000   15.2000000000000000    0.0000000000000000
     0.0000000000000000    0.0000000000000000    17.000000000000000
PRESSURE
7.8438 8.00326 3.48313 -0.103965 0.051707 0.039758
PRIMCOORD
320 1
Pb       3.80825      3.64381      4.12629        -0.064771      0.554313     -0.009433
Pb       3.84643      3.75673     16.89053        -0.007314     -0.229898      0.107665
Pb       3.73635     15.18612      4.18550         0.325419     -0.230634     -0.266042
Pb       3.65134     15.18937     16.92796         0.712154     -0.055064      0.011227
Pb       0.02840      3.66015      4.18801        -0.163766      0.311422      0.318074
Pb      15.17087      3.73937      0.07732        -0.372206      0.252325     -0.687262
Pb      15.16804     15.17193      4.32714        -0.164594      0.129379     -0.739732
Pb      15.03132     15.18472      0.08763         0.308072     -0.113712     -0.257009
Pb       3.84958      3.89070      8.57003        -0.361403     -0.749592     -0.376931
Pb       3.79038     15.05386      8.66357         0.278168      0.150395      0.086671
Pb       0.15406      3.77780      8.53186        -0.495008      0.033204     -0.853356
Pb      15.14164     15.07636      8.36973         0.403997      0.770111      0.267536
Pb       3.71691      3.82457     12.68716        -0.046870     -0.247212      0.384705
Pb       3.60214      0.10173     12.80303         0.535758     -0.690821     -0.345245
Pb      15.08017      3.94910     12.67592         0.208675     -0.278044      0.584505
Pb      15.16830      0.17016     12.82828        -0.130582     -0.317796     -0.599798
Pb       3.80239      7.48166      4.17573         0.165023     -0.249904     -0.434530
Pb       3.75220      7.52699     16.85123        -0.016883      0.403257      0.575146
Pb       0.00917      7.64345      4.23933        -0.065312     -0.846240     -0.176164
Pb      14.98900      7.55980     16.97344         0.425606     -0.413600     -0.115201
Pb       3.86372      7.68973      8.46676        -0.207595     -0.867464      0.012440
Pb       0.12215      7.57796      8.40703        -0.637490     -0.489111      0.029362
Pb       3.74709      7.61949     12.71674        -0.402218     -0.007381     -0.069393
Pb       0.04635      7.65265     12.66159        -0.597834     -0.086519      0.231488
Pb       3.77771     11.17537      4.19718         0.453236      0.843857     -0.292291
Pb       3.79649     11.33548      0.17639         0.418793      0.202732     -0.515904
Pb       0.12812     11.33189      4.16274        -0.582780     -0.021538      0.239794
Pb      15.14698     11.37133      0.09646        -0.551370      0.212406     -0.448698
Pb       3.85536     11.35123      8.57048        -0.191027      0.891288     -0.420555
Pb       0.08360     11.45604      8.35013         0.058244     -0.624944      0.378629
Pb       3.67379     11.40363     12.83670         0.604086      0.575169     -0.060849
Pb       0.02676     11.36651     12.90608        -0.657662      0.266744     -0.551057
Pb       7.51887      3.67884      4.29895        -0.424203      0.042952      0.175893
Pb       7.54352      3.70558     16.84715         0.069549      0.291092      0.201166
Pb       7.60391     15.07314      4.24306         0.160152      0.038490      0.416499
Pb       7.63377     15.17008     16.91569        -0.268829     -0.062286     -0.202453
Pb       7.47238      3.75932      8.70871         0.310828     -0.061489     -0.860111
Pb       7.65999     15.18089      8.50116        -0.378581     -0.007253      0.248644
Pb       7.64462      3.92618     12.80835        -0.196278     -0.259059     -0.581493
Pb       7.55487     15.11870     12.79635        -0.506257     -0.329150     -0.947244
Pb       7.69360      7.48568      4.14746        -0.230093      0.686720      0.624476
Pb       7.63698      7.70563     16.94093        -0.405022     -0.505294     -0.120237
Pb       7.52872      7.60119      8.50698         0.210978      0.227950     -0.299102
Pb       7.50234      7.66156     12.68972         0.527164      0.066741      0.053518
Pb       7.60105     11.31029      4.37106        -0.169658     -0.284853     -0.268944
Pb       7.62177     11.39311     16.88364        -0.270858      0.355749      0.255642
Pb       7.67586     11.40109      8.65344         0.087051      0.153859     -0.569191
Pb       7.57853     11.40095     12.74521         0.014962      0.334147     -0.035680
Pb      11.23566      3.74078      4.38791         0.363311      0.015908     -0.302509
Pb      11.26764      3.63529      0.00726         0.034620      0.779856     -0.060211
Pb      11.33919     15.14164      4.25521        -0.034622      0.008909     -0.041929
Pb      11.36921      0.06682      0.07056        -0.089759     -0.813664     -0.145662
Pb      11.43531      3.88478      8.52954        -0.423572     -0.385016     -0.243281
Pb      11.47356      0.03089      8.25339        -0.296832     -0.267511      0.823208
Pb      11.32735      3.83958     12.73905         0.088982     -0.054577     -0.406333
Pb      11.45315     15.19360     12.59644         0.426073      0.300451     -0.441505
Pb      11.31366      7.59990      4.27196         0.031621      0.003839     -0.226085
Pb      11.34742      7.57987     16.95331         0.266594     -0.468093     -0.178764
Pb      11.33802      7.54577      8.57795         0.192768      0.147350     -0.358482
Pb      11.45496      7.67693     12.76694        -0.007705      0.206669     -0.236203
Pb      11.26062     11.24277      4.27640         0.479779      0.161571      0.196168
Pb      11.34695     11.52259     16.95174         0.615703      0.044346      0.134402
Pb      11.48898     11.38937      8.39714        -0.121900      0.069337      0.206075
Pb      11.40827     11.58997     12.54864         0.265790     -1.235122      0.107497
Ti       1.85923      1.82478      2.09692         0.350057     -0.014603      0.910778
Ti       1.84260      1.92131     15.00230        -0.647261     -0.681425      0.853927
Ti       1.90761     13.23869      2.29477         0.406258      0.195212      0.537339
Ti       1.90436     13.17597     15.07456        -0.677515      1.410067     -1.164020
Ti      13.22021      1.84088      2.30767         0.053308     -0.544723     -0.550678
Ti      13.15443      1.85307     14.96384         1.841826      0.684668      0.182719
Ti      13.32704     13.16214      2.38099        -0.497643      0.126667     -0.021281
Ti      13.33807     13.33232     14.95445        -0.410241     -1.247550      0.102934
Ti       1.94786      1.82998      6.51867        -1.452227      0.800905      0.405611
Ti       2.02048     13.27766      6.44313         0.192376     -1.621696     -0.126998
Ti      13.25963      1.94877      6.42512         1.076162      0.157102      0.818661
Ti      13.42430     13.20729      6.37007        -1.266171      0.060526      0.008473
Ti       1.84330      1.94822     10.73757        -0.180933     -1.128553      0.188743
Ti       1.88598     13.24471     10.85160         0.368051      1.472118     -0.398033
Ti      13.23755      2.04208     10.58326        -0.134795     -1.993806      1.776468
Ti      13.44046     13.28408     10.61561        -0.225686      0.716216      0.615828
Ti       1.81408      5.65031      2.17589         0.351023     -0.304233      0.782849
Ti       1.83263      5.70456     14.97626        -1.035816     -0.520480     -0.862410
Ti      13.20918      5.60750      2.36214         0.512849      0.106146     -1.083153
Ti      13.20274      5.61271     15.06537         0.111925      0.184178     -0.686840
Ti       1.92507      5.61046      6.43008        -0.365462     -0.003756      0.301688
Ti      13.23631      5.68005      6.48748         0.930583     -0.446957      0.007896
Ti       1.90672      5.74042     10.69282        -1.208028     -0.651912      0.517249
Ti      13.24599      5.78360     10.68311        -0.184755      0.023116     -0.415815
Ti       1.88545      9.38455      2.16229         0.717140     -0.212671      0.225202
Ti       1.85498      9.46850     14.98313        -0.399949     -0.609424      1.142920
Ti      13.30392      9.35186      2.16996        -0.709857      1.393896      0.142440
Ti      13.22196      9.46960     14.94703         0.920233      0.565067     -0.452248
Ti       1.93098      9.37548      6.48366        -0.595936      1.349976     -0.569431
Ti      13.35183      9.41976      6.43452        -0.765979      0.084052      0.616105
Ti       1.84809      9.58325     10.68853        -0.495130     -0.909563      0.789681
Ti      13.31443      9.51575     10.58205        -0.624911      0.430247      2.560550
Ti       5.75244      1.83887      2.13916        -1.609551      0.685553     -0.660963
Ti       5.69611      1.92161     14.81687         0.008473     -0.793101      1.691685
Ti       5.71752     13.32659      2.20444        -0.715508     -0.930764     -0.315305
Ti       5.73260     13.31109     15.03713        -0.687748     -0.077991     -0.638636
Ti       5.59169      1.87968      6.55776         0.844758     -0.379325      0.331834
Ti       5.69754     13.33175      6.54875         0.420114     -0.454141      0.084748
Ti       5.69472      1.94582     10.84257        -0.613318     -1.362803     -0.084648
Ti       5.68831     13.28409     10.81218        -0.217741      1.580051     -0.071327
Ti       5.72136      5.64543      2.14014        -0.677921      0.150494      0.190649
Ti       5.60991      5.71214     14.90384         1.245056     -0.362209      1.147666
Ti       5.62913      5.69052      6.45487         0.693377     -0.456506      0.151378
Ti       5.59951      5.72088     10.69046         0.884711     -0.756527      0.190861
Ti       5.82343      9.48387      2.21718        -0.615219      0.155578     -0.833618
Ti       5.67769      9.48820     14.96967         0.174981      1.018433      0.870126
Ti       5.61926      9.55088      6.56479         2.068009      0.089659     -0.790654
Ti       5.62963      9.53181     10.78527         0.524304      0.754660     -0.269585
Ti       9.39091      1.89917      2.22730         1.412845     -1.555750     -0.107320
Ti       9.47945      1.81878     14.83464        -0.696855      0.147751      1.386732
Ti       9.49633     13.20740      2.30838         0.441852      0.026450     -0.737454
Ti       9.55725     13.26833     14.81750        -0.123519      0.733760      0.423426
Ti       9.43471      1.91778      6.60927        -0.211595     -0.191792     -0.420156
Ti       9.53015     13.25967      6.53942         0.386647     -0.369325      0.114808
Ti       9.42708      1.87395     10.75650         1.103391      0.627751     -1.201734
Ti       9.59664     13.36370     10.64047        -1.294976     -1.282722     -0.407173
Ti       9.42305      5.59980      2.17499         2.179129      0.439935     -1.611614
Ti       9.40161      5.70339     14.94411         0.610770     -0.411782      1.968238
Ti       9.36099      5.67221      6.55590         0.742716     -0.596827      0.117041
Ti       9.43734      5.78833     10.71482        -0.410293     -1.059848     -0.036556
Ti       9.53498      9.48194      2.12623         0.506233      0.072321      1.392155
Ti       9.55323      9.54009     14.97596        -0.865363      0.000478     -2.021291
Ti       9.49727      9.40096      6.63958        -0.527039      1.185460     -1.106865
Ti       9.45865      9.50479     10.75780         0.919386      0.120695     -0.470551
O       1.89506      1.94033      0.33880         0.003964     -0.190792     -0.389690
O       1.84433      1.82324     13.25155        -0.027214      0.390001     -1.092006
O       1.92090     13.24444      0.55929        -0.071102     -0.470754     -2.222319
O       1.79161     13.09855     13.23032         0.556604      0.179851      0.635403
O      13.19118      1.72002      0.46130         0.194898      0.442113      0.175742
O      13.24408      1.88937     13.20944        -0.195813     -0.096482     -0.521965
O      13.45559     13.40291      0.61985        -0.309114     -0.505988     -1.322973
O      13.31267     13.18983     13.18466        -0.151180      0.399344     -0.209352
O       1.85666      1.97094      4.74277         0.397619     -0.613240     -0.350312
O       1.95250     13.17655      4.67140         0.033715      0.418510     -0.507535
O      13.32607      1.92039      4.65986        -0.089899     -0.041965     -0.790448
O      13.45566     13.16301      4.56900        -0.198368      0.084559      0.769954
O       1.86129      1.94429      8.97870        -0.220816     -0.199921     -0.330405
O       2.01541     13.30667      9.05199        -0.554904     -0.340264     -0.353655
O      13.19151      1.92109      8.84739         0.334039      0.054147     -0.557539
O      13.52932     13.28316      8.83468        -0.266786      0.184235     -0.148629
O       1.69448      5.70221      0.42440         0.838891     -0.152608     -0.809495
O       1.76495      5.73308     13.15722         0.422330      0.131755      0.327876
O      13.32769      5.62373      0.53212        -0.572139      0.094528     -0.258080
O      13.20927      5.67337     13.28907         0.065533     -0.122899     -1.147653
O       1.97940      5.66713      4.66222        -0.048947     -0.122817     -0.509030
O      13.31122      5.58638      4.71818        -0.347267      0.343978     -0.730903
O       1.86254      5.73457      8.93276         0.275266     -0.238498     -0.149936
O      13.20622      5.69065      8.89627         0.190669      0.279382      0.571896
O       1.91106      9.33125      0.41536        -0.060755      0.306617     -0.739831
O       1.79407      9.50210     13.23612         0.434784     -0.161472     -1.557217
O      13.09557      9.42016      0.39704         0.686759     -0.364375     -0.489053
O      13.19102      9.48552     13.13374         0.010749      0.057515      0.851072
O       1.85713      9.22653      4.68732         0.449543      0.769660     -0.471280
O      13.38705      9.45278      4.67608         0.104453     -0.171054     -0.281062
O       1.82875      9.54550      8.95110         0.373532     -0.300058     -0.898630
O      13.26227      9.43408      8.89290         0.235653     -0.106692     -2.099661
O       5.73356      1.84774      0.36428         0.068530      0.449482      0.312055
O       5.65585      1.94076     13.07356         0.203841     -0.290272     -0.532185
O       5.64364     13.28997      0.41068         0.274970     -0.350207      0.077220
O       5.66440     13.31886     13.23931         0.247826     -0.128100      0.387930
O       5.62904      1.77640      4.76928         0.018711      0.130722     -0.183128
O       5.65949     13.40424      4.78848         0.152501      0.106641     -0.875496
O       5.74070      1.97471      9.06314        -0.280652      0.017458     -0.591101
O       5.64157     13.23968      9.02768        -0.185175     -0.169971     -0.802149
O       5.69307      5.52226      0.38516        -0.083512      0.568352     -0.625543
O       5.58210      5.67297     13.16383         0.313865      0.563198     -1.079831
O       5.70060      5.58263      4.70161         0.023176      0.158062     -0.729194
O       5.59661      5.53562      8.90273         0.337678      0.830116      0.283764
O       5.94192      9.55814      0.38460        -0.511991     -0.402070      0.891115
O       5.72345      9.47088     13.20795        -0.209203     -0.167915     -1.119481
O       5.64939      9.55530      4.78671         0.066002     -0.113813     -0.486411
O       5.66369      9.42921      8.97033        -0.026938      0.532277      0.361565
O       9.49896      1.82959      0.44269        -0.319441     -0.386256      0.382305
O       9.49534      2.02109     13.10815        -0.202050     -0.491560     -1.101459
O       9.52872     13.22231      0.52745        -0.100464      0.218709     -0.104941
O       9.50696     13.20100     13.02260         0.318551      0.429637     -0.150149
O       9.58129      1.93830      4.79681        -0.729805     -0.000238     -0.691305
O       9.60936     13.25219      4.73845        -0.466194     -0.233015     -0.212560
O       9.56860      1.81595      8.93013        -0.576841      0.225162      0.077071
O       9.50983     13.35589      8.86118         0.058044      0.011204     -0.410808
O       9.52667      5.54108      0.34059        -0.261055      0.481544      1.337543
O       9.41899      5.58545     13.21320        -0.159977      0.031226     -1.706894
O       9.47851      5.73679      4.75874        -0.109883     -0.513289     -0.557096
O       9.42831      5.79131      8.93683        -0.097777      0.038919     -0.493838
O       9.44382      9.53031      0.36985         0.238439     -0.216882     -1.114916
O       9.54782      9.58183     13.14173        -0.196674     -0.294931      0.577652
O       9.38614      9.39242      4.79740         0.471916      0.398587      0.338084
O       9.36894      9.32925      8.95247         0.118067      0.009583     -0.649512
O       3.81037      1.84446      2.56036        -0.474060      0.422864     -0.131812
O       3.88025      1.81110     15.33999        -1.217270      0.100840     -0.231037
O       3.84621     13.14902      2.64470        -0.368584      0.291025      0.055405
O       3.74274     13.37915     15.36573         0.500559     -0.488937     -0.001257
O      15.18013      1.75217      2.53969         0.412883      0.136632      0.039898
O      15.15080      2.03739     15.27194        -0.188506     -0.221163      0.345240
O       0.04185     13.25285      2.61603         0.129419      0.088105      0.558312
O      15.18367     13.20997     15.30709         0.173965     -0.370500      0.730409
O       3.72007      1.82962      7.00542         1.135022     -0.056143     -0.239466
O       3.83347     13.21443      6.93207        -0.572261      0.518686      0.163189
O      15.19515      2.01041      6.81790         0.312846     -0.686511      0.223974
O       0.09448     13.19760      6.78328        -0.455689      0.213908     -0.051498
O       3.72781      1.88116     11.18372         0.031114     -0.327751     -0.190518
O       3.77325     13.40019     11.21689        -0.610305     -0.475997      0.142863
O      15.07192      2.18485     11.10663         0.445852     -0.885688     -0.440453
O       0.02494     13.15266     11.15143        -0.377841      0.113283     -0.074004
O       3.87629      5.54949      2.53900        -1.242647      0.542855     -0.117484
O       3.77943      5.77563     15.22494        -0.289747     -0.121711      0.504395
O      15.15456      5.82656      2.47582         0.118460     -0.614342      0.838546
O      15.13776      5.57512     15.30946        -0.096668      0.119519      0.368174
O       3.81237      5.64453      6.90315        -0.518576      0.490206     -0.044689
O       0.06640      5.70704      6.82053        -0.812598     -0.157073      0.156644
O       3.72962      5.68714     11.09268         0.373684      0.539971      0.150404
O      15.13666      5.67052     11.02435        -0.233795     -0.080423     -0.018911
O       3.84893      9.51576      2.37614        -0.314514     -0.375889      0.552844
O       3.74340      9.46093     15.18899         1.492757     -0.623409      0.603402
O      15.19356      9.29831      2.40253         0.429752     -0.087244      0.470372
O      15.16234      9.39298     15.22092        -0.510962      0.260375      0.606110
O       3.77917      9.46779      6.97196         0.050770     -0.108637     -0.152988
O       0.06236      9.46491      6.84313        -0.608159     -0.062621     -0.031967
O       3.72353      9.50002     11.09283         1.083576     -0.325669      0.245058
O      15.19247      9.54671     11.10788         0.056576     -0.166842     -0.224919
O       7.54633      1.78504      2.65722         0.567236     -0.255325      0.190303
O       7.58213      1.84516     15.23216        -0.313418      0.109187     -0.050549
O       7.56196     13.26927      2.60822         0.255911      0.047662      0.384478
O       7.66013     13.19390     15.16054        -0.338588      0.126445      0.475015
O       7.52856      1.85531      6.90798        -0.045781     -0.078998     -0.113061
O       7.66651     13.19786      6.80370        -0.589771      0.233778      0.203628
O       7.58539      1.80919     11.08268        -0.063905      0.577193      0.344147
O       7.55717     13.27301     11.01600         1.721980      0.053644      0.500587
O       7.67177      5.75377      2.48338        -1.367897     -0.185621      0.454957
O       7.54370      5.52669     15.28967        -0.116792      0.383125     -0.220203
O       7.54450      5.62801      6.82591        -0.567369      0.215203      0.344640
O       7.46338      5.55124     11.01847         0.478034      0.488712      0.369397
O       7.70467      9.48411      2.64613        -0.934481     -0.231136     -0.146075
O       7.63735      9.68588     15.23374        -0.164181     -0.790270      0.190072
O       7.59694      9.59099      6.89481        -0.818912     -0.148196      0.312853
O       7.56215      9.60475     11.12505        -1.007261     -0.350802      0.136470
O      11.33806      1.87583      2.51429        -0.653298     -0.001151      0.533705
O      11.31305      1.65988     15.18781         0.288177      0.158343      0.654766
O      11.43103     13.08673      2.58915        -0.276161      0.384288      0.332913
O      11.42737     13.36430     15.36877        -0.129126     -0.136601     -0.156655
O      11.39260      1.92389      6.73444         0.168879     -0.098169      0.389501
O      11.51383     13.27906      6.82836         0.195449      0.264576     -0.212066
O      11.29994      1.80831     11.08738         1.584063      0.296986      0.217782
O      11.47260     13.36840     10.95143         0.340474     -0.202872      0.157593
O      11.33966      5.54713      2.58976        -0.476582     -0.068171      0.369333
O      11.30192      5.75457     15.24156        -0.484403     -0.488637      0.604649
O      11.34340      5.63341      6.88837        -0.014163      0.276865     -0.213274
O      11.27490      5.87526     10.96129         1.239046     -0.187661      0.438679
O      11.47645      9.60130      2.64466        -1.738017     -0.645197     -0.051783
O      11.38142      9.49403     15.30061        -0.543700     -0.316486      0.409941
O      11.40596      9.54036      6.73066         0.553647     -0.908580      0.402226
O      11.30371      9.33794     10.99009         1.188586      0.342649      0.009493
O       1.78057      3.69711      2.49072         0.255300      0.682313      0.092639
O       1.95689      3.80388     15.27765         0.418192      0.223200      0.367477
O       1.93318     15.12545      2.42974         0.237358      0.808626      0.806172
O       1.73550     15.15281     15.21796         0.572666      0.189860      0.671567
O      13.31562      3.68762      2.62994         0.249693      0.925513     -0.047554
O      13.05353      3.73023     15.35494         0.067201     -0.203541      0.240514
O      13.26295     15.15862      2.64205        -0.065249     -0.220442      0.684490
O      13.36594     15.16501     15.38864         0.041801      0.354787     -0.252772
O       1.93923      3.78543      6.89698         0.060216     -0.326938     -0.012189
O       1.89158     15.09482      6.74174        -0.139898      1.236412      0.278680
O      13.30555      3.79642      6.82387        -0.251032      0.217992      0.266982
O      13.40463     15.18024      6.66189         0.104315     -0.411207      0.170451
O       1.90923      3.75596     11.16661        -0.130318      1.663811     -0.271195
O       1.76329      0.00099     11.11468        -0.210735      0.447018      0.412370
O      13.05457      3.85501     11.01239        -0.018942      0.796654      0.134948
O      13.43623      0.02035     11.01472        -0.268600      0.132298      0.034463
O       1.94178      7.49344      2.56532         0.605215      0.617809      0.179065
O       1.86998      7.54088     15.31784         0.053718      0.404938      0.229791
O      13.10938      7.54877      2.55304         0.121448     -0.842807      0.464277
O      13.14478      7.53837     15.26746         0.504618      0.625595      0.711948
O       1.90150      7.54021      6.76295         0.543220     -0.005481      0.794254
O      13.31289      7.54296      6.82394        -0.069214      0.624095      0.027783
O       1.83646      7.56743     11.01728         0.202427      1.071447      0.339312
O      13.27108      7.67427     11.06277         0.341603     -1.412248      0.132466
O       1.84052     11.30880      2.54448         0.113701     -0.869583      0.027279
O       1.97769     11.30094     15.38850        -0.473246      0.619058      0.473605
O      13.41556     11.25156      2.45092         0.621454      0.895979      0.381509
O      13.29850     11.37020     15.38986        -0.104164      0.097929      0.118093
O       1.98569     11.32775      6.75315        -0.243635     -0.047867      0.299329
O      13.28858     11.33532      6.82964         0.756542      0.387652     -0.198948
O       1.96610     11.39018     11.16437        -0.072593     -0.555510     -0.094906
O      13.29220     11.39108     10.89614        -0.565761      0.061875      0.323210
O       5.73202      3.79813      2.56064         0.722197     -1.250895      0.291670
O       5.64463      3.79901     15.22343        -0.166968     -0.263364      0.065460
O       5.59710     15.19876      2.32427         0.282520     -0.659955      1.176334
O       5.79081     15.17387     15.31983        -0.040471      0.240010     -0.139880
O       5.64934      3.74918      6.84090        -0.081059     -0.225741      0.127814
O       5.64433     15.14109      7.03983         0.156720      0.848334     -0.184616
O       5.51863      3.82849     11.06214         0.390818     -0.005414      0.231209
O       5.71727     15.16441     11.05180        -0.180658      1.280333      0.607347
O       5.74092      7.57212      2.50388        -0.043342      0.072764      0.157318
O       5.81730      7.60620     15.35231        -0.171427     -0.095836     -0.125858
O       5.66758      7.57738      6.71993        -0.045195      0.428353      0.797624
O       5.72694      7.61527     10.95328        -0.321102      0.093310      0.691056
O       5.68253     11.33951      2.65808         0.595511      0.113810     -0.044074
O       5.69352     11.38099     15.45380        -0.736257      0.028229     -0.465099
O       5.63299     11.44139      6.85423         0.078942     -1.043687      0.383337
O       5.70269     11.48461     11.19256        -0.812370     -2.900697      0.002513
O       9.34061      3.69330      2.52994         0.166759      1.140769      0.452108
O       9.44962      3.61646     15.44220         0.681697      1.063438     -0.834472
O       9.53154     15.05307      2.72936        -0.125741      1.535148     -0.280802
O       9.39494     15.12037     15.30780         0.071611      0.275521     -0.281343
O       9.39272      3.76153      6.91559         0.363514      0.656443      0.068996
O       9.50092      0.00541      6.79178         0.141884     -0.634450      0.214932
O       9.49622      3.82053     11.01908        -0.137370     -0.049806      0.239915
O       9.54859     15.15014     10.95078        -0.608843      0.866531      0.947545
O       9.59291      7.62844      2.59241        -0.012473     -1.042676     -0.415511
O       9.34853      7.57267     15.22728         0.082700      0.684120      0.217620
O       9.41580      7.56403      6.83070         0.161548     -0.473726      0.511771
O       9.32070      7.60581     11.09711        -0.641109     -0.300898      0.554132
O       9.49499     11.30936      2.58640        -0.264526      0.345663      0.540539
O       9.58431     11.45332     15.18647         0.331011     -0.730695      0.724168
O       9.67287     11.37897      6.93636        -0.945714      0.114723     -0.032879
O       9.56233     11.37903     10.75581        -0.055948      0.647359      0.848860
