  # total energy = -7880.01855190 
CRSYTAL
PRIMVEC
    15.6000000000000000    0.0000000000000000    0.0000000000000000
     0.0000000000000000   15.6000000000000000    0.0000000000000000
     0.0000000000000000    0.0000000000000000    17.640000000000000
PRESSURE
-5.73608 -5.64911 -3.27189 0.093824 -0.170377 0.031111
PRIMCOORD
320 1
Pb       3.94884      3.89932      4.31114         0.078896      0.220375     -0.269781
Pb       3.88842      3.76004     17.58723         0.051582      0.613053     -0.554324
Pb       3.90109      0.00816      4.43468         0.251374     -0.152853     -0.827755
Pb       3.94907      0.03240     17.57081         0.041103     -0.702863      0.097286
Pb      15.53325      3.84263      4.31420         0.756651      0.099852     -0.119370
Pb      15.59429      3.76071     17.52187        -0.271624      0.918899      0.034452
Pb       0.01134      0.03499      4.35697         0.168301     -0.557397     -0.896781
Pb       0.07848     15.56520      0.03228        -0.404944     -0.487736     -0.375035
Pb       3.88808      3.85023      8.76375        -0.175535      0.646343     -0.644832
Pb       3.87377      0.02445      8.79335        -0.112909     -0.177288     -0.469068
Pb       0.04741      3.83245      8.81165        -0.065036     -0.083876     -0.905538
Pb       0.00600      0.09485      8.84671        -0.087984     -0.558075     -0.363518
Pb       3.81120      3.99686     13.15022         0.091098      0.267636     -0.288525
Pb       3.94805      0.09032     13.20235        -0.082901     -0.321661     -0.344743
Pb      15.59669      3.86689     13.25209        -0.023563     -0.009424     -0.321446
Pb      15.55405     15.57145     13.22206         0.068286     -0.057127     -0.562241
Pb       3.88694      7.78969      4.23778         0.331455     -0.031070     -0.013232
Pb       3.85579      7.78107     17.59095         0.193575     -0.049880     -0.558315
Pb      15.55164      7.62358      4.40380        -0.263601      0.278976     -0.562259
Pb      15.51630      7.77326     17.61159         0.195217     -0.472967     -0.458972
Pb       3.80761      7.75632      8.77177        -0.103331     -0.087627     -0.569192
Pb       0.06082      7.84891      8.67707        -0.330982     -0.369560     -0.097248
Pb       3.88038      7.87302     13.20001         0.647569     -0.963813     -0.924790
Pb      15.52649      7.78780     13.18149        -0.250331     -0.315824     -0.411912
Pb       3.90215     11.60325      4.32565         0.104228     -0.426846     -0.465939
Pb       3.85936     11.65057     17.55047         0.207986      0.093779      0.013694
Pb       0.06782     11.69098      4.44531        -0.354099     -0.325074     -1.186964
Pb       0.02975     11.58767      0.03624        -0.125278      0.723057     -0.296807
Pb       3.88150     11.73886      8.76944        -0.154392     -0.008237     -0.751158
Pb       0.02502     11.52992      8.75087         0.140765      1.062013      0.211942
Pb       3.94489     11.54329     13.20917        -0.632117      1.032418      0.120223
Pb       0.07433     11.66206     13.24939        -0.234082      0.675330     -0.440001
Pb       7.76561      3.91376      4.29848         0.161095     -0.029740     -0.432769
Pb       7.84812      3.85255     17.61708         0.089075     -0.144084     -0.579267
Pb       7.88020     15.59394      4.39619        -0.463229      0.015287     -0.515187
Pb       7.79060     15.50103     17.59614         0.171553      0.140386     -0.241861
Pb       7.90849      3.89877      8.76212        -0.346018      0.131716     -0.883983
Pb       7.73140      0.02564      8.73760        -0.223782      0.179679     -0.665436
Pb       7.62544      3.81018     13.19144         0.158092      0.468444     -0.296905
Pb       7.77432     15.58907     13.13967        -0.110482     -0.276159     -0.244061
Pb       7.69576      7.75194      4.33055         0.038728     -0.215284     -0.181160
Pb       7.78588      7.74019     17.51732        -0.213451      0.016303     -0.373974
Pb       7.82875      7.82735      8.79045        -0.048618     -0.243895     -0.482286
Pb       7.86885      7.66742     13.24035        -0.504525      0.302181     -0.994572
Pb       7.70041     11.59297      4.31001         0.289173     -0.031174      0.002938
Pb       7.78987     11.65559     17.52688        -0.375061      0.436381     -0.214141
Pb       7.76526     11.62482      8.69685         0.005452      0.343546     -0.376946
Pb       7.74741     11.58787     13.21694         0.209653      0.334975     -0.787745
Pb      11.70539      3.84357      4.28485        -0.807255      0.217154     -0.402907
Pb      11.58314      3.86907     17.54795         0.249852      0.051134     -0.208184
Pb      11.78353      0.05939      4.33857        -0.369996     -0.976682     -0.648445
Pb      11.81912      0.05099     17.56888        -0.586231     -0.482308     -0.315938
Pb      11.70895      3.89170      8.78811         0.129838     -0.241766     -0.465294
Pb      11.55452      0.00307      8.80804         0.416015     -0.414512     -0.277577
Pb      11.64029      3.82088     13.20573         0.054564      0.263769     -0.567411
Pb      11.71014      0.08359     13.24760        -0.565157     -0.266477     -0.384493
Pb      11.62558      7.84034      4.41725         0.098952      0.014481     -0.570594
Pb      11.80152      7.85403      0.00422        -0.308292     -0.136355     -0.119499
Pb      11.77569      7.79629      8.79497        -0.023169     -0.365138     -0.462038
Pb      11.66677      7.86207     13.18873        -0.096038     -0.147900     -0.904475
Pb      11.69831     11.66058      4.54078        -0.085280      0.195021     -0.944875
Pb      11.57351     11.74733      0.11774         0.201643      0.559702     -0.825622
Pb      11.56349     11.75584      8.89402        -0.043644      0.610626     -0.593263
Pb      11.75751     11.67859     13.35555        -0.265794      0.145798     -1.054402
Ti       1.91236      1.95939      2.34657         0.086250     -0.922210      1.356415
Ti       1.86958      1.88810     15.63107         0.424571      0.247445     -1.367920
Ti       1.90133     13.55531      2.30311        -0.280954      0.498744     -0.275656
Ti       1.91310     13.63071     15.70001        -0.382085     -0.876895     -1.408254
Ti      13.59535      1.90386      2.35079         0.459212     -0.765784     -0.204053
Ti      13.64254      1.97375     15.55817        -0.818884     -0.291289     -0.628212
Ti      13.58520     13.53450      2.31372        -0.245012      0.325109      1.711931
Ti      13.54444     13.60492     15.55855         0.850329      0.578536      1.275943
Ti       1.91848      1.85925      6.70803        -0.484932      0.724723      0.837616
Ti       1.91621     13.59343      6.68793        -0.141066      0.611666      1.439594
Ti      13.64001      1.85119      6.65932        -0.416629      0.519282      3.041260
Ti      13.67117     13.63955      6.79598        -0.514793      0.557507     -0.273265
Ti       1.88710      1.94562     11.19509         0.053434      0.508023      0.019873
Ti       1.90144     13.70384     11.20864        -0.179009     -0.469011      0.872148
Ti      13.58338      1.99650     11.23397         0.237448      0.049019      1.132908
Ti      13.53269     13.70534     11.25670         0.310661     -0.703785     -1.672604
Ti       1.96687      5.79525      2.36590         0.985680      0.006216     -0.367015
Ti       1.94488      5.77204     15.55299        -0.341131      0.612419      0.958143
Ti      13.62832      5.72674      2.34400        -0.265716      1.584250     -1.197697
Ti      13.59424      5.87235     15.60019         1.578733     -0.845899      0.208817
Ti       1.85576      5.84415      6.67115         0.982335     -0.586422      0.805787
Ti      13.58450      5.80846      6.71004         0.653587      0.482033     -0.258976
Ti       1.81318      5.88875     11.15261         1.301943     -0.173752      0.636143
Ti      13.61662      5.83341     11.09099        -0.845808      0.428187      0.414288
Ti       1.91016      9.66676      2.29462         0.121849      0.563902      2.798323
Ti       1.87377      9.69695     15.53149         0.215309      0.517280      2.558840
Ti      13.60309      9.71718      2.28503         0.582584     -0.199820      0.688641
Ti      13.62294      9.80829     15.62444        -0.637850      0.194742      0.525967
Ti       1.91136      9.76129      6.68458         1.362589     -0.223155     -0.987290
Ti      13.56237      9.86991      6.84876         0.103512     -1.289284     -0.074722
Ti       1.88674      9.79520     11.24632         0.181944     -0.697080     -0.888143
Ti      13.56913      9.76545     11.12238         0.896648      0.490434      2.093795
Ti       5.81980      1.90855      2.32350         0.510249     -0.441877      0.877237
Ti       5.80164      1.93175     15.62943         0.619798     -0.108213      0.791660
Ti       5.76519     13.59561      2.42496         0.313935      0.365784     -1.293822
Ti       5.80383     13.63810     15.54806        -0.041031      0.109672      1.483835
Ti       5.72024      2.04591      6.74216         1.407659     -0.800333      0.692051
Ti       5.79836     13.66661      6.79068         0.013666     -0.017733     -1.745936
Ti       5.81821      2.00811     11.15002        -0.600440     -1.028527      0.275168
Ti       5.67810     13.62511     11.19100         0.990918      0.816367      2.033447
Ti       5.87041      5.80129      2.15868        -0.147049      0.551984      1.166990
Ti       5.82447      5.82134     15.58226        -0.228277      0.047654     -0.762216
Ti       5.87099      5.89607      6.74248        -0.556844     -0.302335      1.440906
Ti       5.83160      5.86582     11.10063        -0.662886      0.601772      2.364237
Ti       5.85960      9.65264      2.28071        -0.733218      0.568756     -0.462795
Ti       5.80904      9.78108     15.47796         0.431994     -0.643972      1.448016
Ti       5.78017      9.67934      6.78720        -0.338164      0.619749     -0.029242
Ti       5.83008      9.83013     11.06986         0.447632     -1.532202      0.758439
Ti       9.70550      1.87569      2.33104        -1.025138      0.193852     -0.158874
Ti       9.74845      1.94155     15.56309        -0.432495     -0.714036     -0.647360
Ti       9.63343     13.52769      2.40946         0.929880      0.337435     -1.471354
Ti       9.70874     13.67048     15.45980         0.237923      0.661871      0.650875
Ti       9.76420      1.89999      6.70346        -0.916258      0.582916     -1.066323
Ti       9.69506     13.68769      6.65735         0.596794     -1.077763      0.452848
Ti       9.68842      1.96727     11.14411         0.574377     -0.565940      1.362267
Ti       9.61719     13.67654     11.17309         0.177164     -0.289147      0.831543
Ti       9.81400      5.85988      2.28991        -0.979383     -0.969176     -0.227186
Ti       9.82260      5.90602     15.52336        -1.027889     -0.797715      0.447294
Ti       9.75496      5.79597      6.75074        -0.983311      0.339744      0.714417
Ti       9.69344      5.78013     11.13791         0.423198      1.066440      0.031115
Ti       9.73888      9.68948      2.26587        -0.166349     -0.002962      1.063691
Ti       9.75656      9.74959     15.56993        -0.031967      0.190021     -0.772031
Ti       9.72481      9.73966      6.80284        -0.624739     -0.170087     -1.050356
Ti       9.75861      9.80299     11.14454        -0.737527     -0.239307      1.430918
O       1.73888      1.91758      0.63297         0.602631      0.411696     -1.805463
O       1.84961      1.97319     13.85359         0.010505     -0.324309      0.668233
O       1.88492     13.55125      0.53080         0.117033      0.249243     -0.028067
O       1.89400     13.47281     13.93561        -0.332252      0.505727      0.168908
O      13.55330      1.89835      0.62591         0.179978      0.152817     -0.799621
O      13.56601      2.02368     13.74389         0.181856     -0.054819      0.818424
O      13.39482     13.60132      0.62140         0.239086     -0.123281     -1.425276
O      13.61662     13.64499     13.82036        -0.204779     -0.137575     -0.849953
O       1.87647      1.79247      4.95662         0.005980      0.038821      0.040127
O       1.81654     13.81881      4.96763         0.056794     -0.537466     -0.912808
O      13.60057      1.78128      4.96953         0.066016      0.560717     -2.248665
O      13.61803     13.61979      5.03126         0.291660     -0.240046      0.026940
O       1.80366      2.02411      9.42038         0.058901     -0.122658     -0.078928
O       2.01645     13.53777      9.50019         0.112250      0.234549     -0.760821
O      13.57293      2.07385      9.54100         0.281476     -0.269966     -2.026047
O      13.52654     13.74694      9.44941        -0.154078      0.068680      0.869472
O       2.08299      5.68715      0.63866        -0.223933      0.165790     -0.708978
O       1.94152      5.85755     13.83291        -0.367318     -0.157053     -1.088454
O      13.54610      5.79577      0.55185         0.313808     -0.247130      1.118851
O      13.80984      5.75588     13.86852        -0.689126      0.576494     -0.234652
O       1.87029      5.82388      4.94634        -0.038982      0.264252     -0.838715
O      13.64659      6.02616      4.88549        -0.110645     -0.776125      0.889774
O       1.92981      5.93994      9.41353        -0.232675     -0.275418     -0.989224
O      13.54043      5.89416      9.33946         0.221943     -0.258745     -0.237850
O       1.90458      9.73452      0.62000        -0.073638     -0.057482     -2.434570
O       1.78058      9.93315     13.83803         0.444093     -0.770141     -1.117218
O      13.66314      9.70811      0.50982        -0.415786     -0.043353      0.326499
O      13.48946      9.75589     13.85933         0.490453     -0.028738      0.423970
O       2.07695      9.80082      4.89790        -0.693909      0.118028      0.462697
O      13.54193      9.87215      5.10750        -0.169318     -0.140745     -0.155062
O       1.81562      9.57646      9.45187         0.121057      0.828746      0.788923
O      13.72683      9.70724      9.40422        -0.256174     -0.005032     -1.224024
O       5.83904      1.91081      0.56865        -0.443534      0.188349     -0.255276
O       5.70735      1.75604     13.90529         0.507928      0.539415     -0.741370
O       5.79413     13.59508      0.62981        -0.022943     -0.069790      1.119885
O       5.85144     13.69087     13.85482        -0.022007      0.154851     -1.342647
O       5.77234      1.95422      5.02526        -0.220967      0.241321     -0.884974
O       5.81780     13.77438      4.99862        -0.139175     -0.472145      0.455546
O       5.84176      1.86488      9.40988        -0.068758      0.285890     -0.263776
O       5.68277     13.59198      9.47821        -0.112773     -0.004208     -1.870421
O       5.90623      5.89373      0.39808        -0.495554     -0.452400     -0.179929
O       5.76584      5.80407     13.79296         0.353135      0.063447      0.079881
O       5.88357      6.02330      5.05891         0.087979     -0.417074     -2.095247
O       5.86490      5.90561      9.40406         0.020091      0.074620     -1.503057
O       5.74756      9.82145      0.53828         0.323924     -0.388950     -0.215822
O       5.85885      9.73629     13.73782        -0.113723      0.237402      0.085784
O       5.73815      9.72218      5.03214         0.138851     -0.048454     -0.788681
O       5.82386      9.75572      9.27047        -0.109834      0.238575      0.988372
O       9.49680      1.88240      0.58214         0.947197      0.155529      0.004529
O       9.83318      1.87378     13.74984        -0.263127      0.538232      0.766448
O       9.65359     13.44729      0.55253         0.186551     -0.000491      1.349658
O       9.74130     13.88349     13.70497        -0.244041     -0.745311      0.554595
O       9.70431      1.87137      4.88460         0.444738      0.179533      0.999247
O       9.62710     13.57405      4.89739         0.177944      0.262927      0.223378
O       9.78068      1.91387      9.41962        -0.460703      0.035601     -1.239106
O       9.69030     13.70616      9.42029         0.111973     -0.123130     -0.465824
O       9.65503      5.81846      0.54132         0.228421      0.077475     -0.355811
O       9.91297      5.86827     13.76231        -0.624393      0.092771      0.313023
O       9.74765      5.81282      5.04354         0.128393     -0.130301     -1.776548
O       9.59912      5.81865      9.35815         0.078307     -0.132835     -0.144342
O       9.76702      9.54560      0.52385         0.011071      0.758381     -0.338667
O       9.80542      9.69580     13.76679        -0.076471     -0.215615      0.954230
O       9.65250      9.75050      5.01469         0.563853      0.006107      0.635487
O       9.72704      9.78347      9.41209         0.098603     -0.169444     -0.936547
O       3.96101      1.87769      2.84649        -0.866075      0.722923     -0.359962
O       3.85908      1.90929     16.03567        -0.933561     -0.169321      0.308534
O       3.79888     13.61533      2.72386         0.534748     -0.212108      0.367779
O       3.86493     13.71179     15.91440        -0.250113     -0.443483      0.628916
O      15.59432      1.98977      2.71646        -0.429049      0.200769      0.574017
O      15.52121      1.87043     16.00905         0.134226      0.071545      0.097554
O      15.55772     13.64687      2.58806         0.056746     -0.282122      0.705555
O      15.46298     13.66382     15.97626         0.157986     -0.154863      0.492633
O       3.77274      1.99500      7.20569         0.432883     -0.408466     -0.018669
O       3.81478     13.57667      7.11415         0.739675      0.479029      0.432420
O      15.54021      1.89117      7.24321         0.063993      0.026015     -0.309966
O       0.05134     13.61908      7.17675        -0.848875     -0.080310      0.158534
O       3.81684      2.04805     11.52506         0.545098     -0.361978      0.185139
O       3.83888     13.73632     11.71667         0.014915     -0.423705     -0.150204
O      15.58977      1.95608     11.60234        -0.453718      0.005702      0.287974
O      15.56596     13.69986     11.48896         0.025125      0.294544      0.802859
O       4.01939      5.82189      2.74453        -1.034707     -0.337832      0.136844
O       3.84123      5.76746     15.79576        -0.497605      0.078794      1.165518
O       0.09596      5.76974      2.73683        -1.375698      0.289089      0.253380
O      15.56526      5.83114     16.02022        -0.119645      0.085153      0.389231
O       3.95080      5.80090      7.08476        -1.397955      0.380520      0.634725
O      15.55411      5.88481      7.07083        -0.023978     -0.005881      0.048397
O       3.92559      5.76538     11.54185        -0.340140      0.337663      0.153691
O      15.54436      6.00613     11.53498        -0.258505     -0.454796     -0.013705
O       3.92811      9.78973      2.64762        -0.531923     -0.045167      0.528085
O       3.85954      9.79698     16.01573        -0.258594     -0.362220     -0.677947
O      15.50781      9.75954      2.76147         0.187070     -0.510694      0.064166
O      15.54293      9.87253     16.10903         0.179487     -1.196853     -0.774569
O       3.78797      9.66707      7.15281         0.763267      0.254837      0.519646
O       0.02502      9.79744      7.12177        -0.897590     -0.068931      0.124619
O       3.90052      9.72067     11.63682        -0.562154      0.570472     -0.252338
O       0.00130      9.72366     11.74112         0.066025     -0.184313     -0.506929
O       7.73184      1.97472      2.70120         0.166198     -0.221356      0.676427
O       7.79884      1.90731     16.07006        -0.554928      0.196210     -0.652127
O       7.78463     13.58419      2.72824        -0.717556      0.139155      0.389541
O       7.74401     13.56180     16.04637         0.808837      0.609532     -0.425028
O       7.75714      1.92604      6.99819         0.631917     -0.212365      0.844802
O       7.74682     13.67272      7.09487         0.300687      0.006217      0.521108
O       7.74416      1.91965     11.65175        -0.082068      0.231142     -0.237070
O       7.65069     13.58224     11.59423         1.017198      0.241900      0.012601
O       7.69518      5.95380      2.74044         0.976112     -0.424619      0.046506
O       7.68289      5.67555     15.88999         1.564573      0.646679      0.074022
O       7.75449      5.71157      7.09596         0.851959      0.159612      0.678271
O       7.70909      5.86791     11.54987         0.526300     -0.150770      0.580020
O       7.79399      9.68535      2.66250         0.120095     -0.402240      0.208744
O       7.75492      9.69731     15.94727         0.356527      0.294892     -0.137278
O       7.71021      9.82296      7.17826         1.126768     -0.320540      0.274228
O       7.79597      9.77968     11.48417        -0.504277      0.470972      0.173082
O      11.63979      1.96471      2.69090         0.653604     -0.030389      0.433095
O      11.69653      1.94524     15.96694        -0.140469      0.375483      0.324490
O      11.68797     13.65512      2.73158        -0.450457     -0.312909      0.570234
O      11.59921     13.69462     15.99328         0.145924     -0.543136     -0.053115
O      11.67733      1.93755      7.19162         0.351591     -0.086215     -0.268745
O      11.63336     13.60609      7.07557         0.282667      0.075300      0.363146
O      11.60977      1.96751     11.50731         0.054682      0.348677      0.619739
O      11.64150     13.57460     11.62526         0.285007      0.325042      0.053213
O      11.67846      5.70854      2.65274         0.657375      0.027139      0.518173
O      11.67594      5.82295     15.95369        -0.276386      0.068228      0.118264
O      11.62467      5.80177      7.12405         1.269101      0.051388      0.214722
O      11.58966      5.85247     11.44581         0.772798     -0.130579      0.255995
O      11.63943      9.79548      2.80677         0.138422     -0.656058     -0.199050
O      11.67984      9.73157     16.04409        -0.376519     -0.366895     -0.011886
O      11.64131      9.70974      7.33048         0.583180      0.328158     -0.405945
O      11.72343      9.83878     11.69568        -0.419272     -0.510017     -0.703621
O       2.05203      3.89794      2.81977        -0.228509     -0.604163      0.140275
O       1.76737      3.83425     15.94587         0.647046     -0.218488      0.335935
O       1.88847      0.05543      2.62148         0.049975     -0.666719      0.515250
O       1.81685     15.56387     16.00044         0.295285      0.506552      0.368102
O      13.69629      3.85995      2.80788        -0.445770     -0.084949      0.193767
O      13.62090      3.86458     15.96769        -0.068447     -0.028053      0.268256
O      13.64542      0.00053      2.73582        -0.165197      0.145668      0.223290
O      13.53074     15.59393     15.94469         0.146313      0.213670      0.095329
O       1.87215      3.86054      7.04868        -0.193493      0.278445      0.451424
O       1.91700     15.57072      7.31352         0.110554      0.216698     -0.353872
O      13.69328      3.87490      7.10972        -0.444039      0.332001     -0.248190
O      13.60362     15.57050      7.04886         0.178519      0.265714      0.557797
O       1.81240      3.94715     11.65600         0.116965      0.021039     -0.193291
O       1.95119      0.03576     11.56273        -0.262022      0.120856      0.128153
O      13.55254      3.95677     11.53501         0.446167      0.237021      0.380509
O      13.57759      0.10740     11.63717         0.143978     -1.149575      0.224508
O       2.07444      7.78062      2.59494        -0.548175     -0.472640      0.527940
O       1.87868      7.76610     15.96672         0.061969      0.763306     -0.000165
O      13.57909      7.71840      2.63342         0.097612      0.268124      0.451518
O      13.62758      7.76059     16.10963         0.095179      0.644234     -0.494438
O       1.90339      7.84247      6.99651        -0.230210     -0.883755      0.546145
O      13.58254      7.78906      7.13893        -0.017959      0.010939      0.246951
O       2.07590      7.73739     11.50231        -0.520510      1.092428      0.995524
O      13.60294      7.79825     11.54956        -0.212758      0.229346      0.331014
O       1.86927     11.60305      2.67304         0.048817      1.198695      0.584519
O       1.83873     11.67081     16.08849         0.387908     -0.286908      0.095958
O      13.55890     11.59820      2.77867         0.209280      0.700984     -0.103038
O      13.53542     11.68363     16.06212        -0.142712      0.027256     -0.350560
O       1.99203     11.69776      7.13289        -0.465843     -0.356243      0.006380
O      13.64865     11.73591      7.22197        -0.130094     -0.541705      0.316375
O       1.94978     11.70929     11.66565        -0.105591     -0.596804     -0.302311
O      13.69385     11.68932     11.48678        -0.206997     -0.146293      0.375505
O       5.88974      3.94088      2.81228        -0.329951     -0.661013     -0.491591
O       5.68758      3.84570     15.91233         0.322006     -0.547385      0.450286
O       5.76788     15.56899      2.77060         0.389394     -0.220474      0.005789
O       5.76231     15.55108     16.10775         0.483995      0.377586     -0.139226
O       5.77070      3.87725      7.23178         0.107075     -0.100253     -0.017831
O       5.77060      0.04701      7.12065        -0.336715     -0.582770      0.852650
O       5.80697      3.88408     11.55478         0.539037     -0.101926      0.092239
O       5.83864      0.00063     11.59964        -0.482620      0.313252      0.029054
O       5.70217      7.73799      2.61834         0.665646      0.719861      0.178035
O       5.81799      7.76408     15.90394        -0.272715      0.666368      0.213358
O       5.91240      7.81241      7.04007        -0.023183     -0.160536      1.059331
O       5.84150      7.94215     11.60399        -0.178252     -0.716876     -0.274894
O       5.89066     11.60095      2.75768        -0.347854      0.908844      0.414536
O       5.89065     11.70591     15.90787        -0.556129     -0.646285      0.026156
O       5.81709     11.68729      7.08424        -0.332085      0.603961      0.623647
O       5.73033     11.73903     11.76554         0.359314     -0.863745     -0.980517
O       9.73413      3.87754      2.58605        -0.277010      0.107268      0.937452
O       9.70611      3.86438     15.96188         0.368843      0.544343      0.154175
O       9.66748     15.54823      2.71196         0.115656      0.150434      0.197640
O       9.79611      0.04963     15.89521        -0.587703     -0.640302      0.447971
O       9.75781      3.81294      7.12984        -0.063361      0.036793      0.331511
O       9.79017     15.54894      7.11106        -0.438311      0.602677      0.118598
O       9.61566      3.89714     11.50297         0.025276     -0.296414      0.368263
O       9.73947     15.58487     11.48616        -0.412493      0.296344      0.175620
O       9.79543      7.70040      2.68033         0.149357      1.108142      0.547241
O       9.65799      7.77764     15.98508         0.285188     -0.475496     -0.430896
O       9.69476      7.78175      6.98898        -0.126359      0.084756      1.008329
O       9.68041      7.76988     11.53710         0.205454      0.492292      0.329504
O       9.66772     11.61053      2.77343         0.223268      0.028607     -0.251573
O       9.76782     11.70773     15.67136        -0.244923     -0.463627      0.698917
O       9.83755     11.66793      7.19428        -0.795259      0.403921      0.098949
O       9.71223     11.69365     11.50324        -0.002628      0.059134      0.347727
