  # total energy = -7880.53407660 
CRSYTAL
PRIMVEC
    15.6000000000000000    0.0000000000000000    0.0000000000000000
     0.0000000000000000   15.6000000000000000    0.0000000000000000
     0.0000000000000000    0.0000000000000000    17.640000000000000
PRESSURE
-3.40857 -3.70817 -2.00111 -0.149887 0.687785 0.017124
PRIMCOORD
320 1
Pb       3.83748      3.90025      4.35359        -0.178635      0.136592     -0.029512
Pb       3.91554      3.90931     17.56229         0.125025      0.200373     -0.400082
Pb       3.85342      0.07831      4.31840         0.061520     -0.546554      0.221133
Pb       3.84495     15.55068     17.58889         0.292534      0.361676      0.235291
Pb      15.55796      3.82627      4.39453         0.346523      0.888520      0.112616
Pb      15.53909      3.92969     17.54173         0.069876      0.244331     -0.155729
Pb       0.01689      0.08373      4.40952         0.160557     -0.850227     -0.066900
Pb      15.51698     15.57934     17.50850         0.261873      0.061905     -0.034669
Pb       3.90146      3.86750      8.76868        -0.123302     -0.301871      0.047056
Pb       3.96115     15.51629      8.71081        -0.397578      0.740216      0.552896
Pb      15.56519      3.92728      8.78412         0.184693     -0.297347      0.306385
Pb       0.02726     15.43948      8.67358        -0.207206      0.395647      0.688267
Pb       3.89939      3.75899     13.27814        -0.079465     -0.136984     -0.380170
Pb       3.81368     15.53033     13.15704        -0.004898      0.445142      0.412260
Pb      15.53134      3.87018     13.01780         0.089078     -0.405617      1.111686
Pb      15.54403     15.57473     13.11303         0.335343      0.049778      0.499208
Pb       3.88425      7.75680      4.52406        -0.069804      0.268934     -0.531460
Pb       3.87609      7.70189     17.63322         0.163627      0.005944     -0.033132
Pb       0.00401      7.91662      4.27244        -0.183789     -0.601764      0.490565
Pb       0.03463      7.73118     17.54882        -0.354334     -0.206325      0.238211
Pb       3.94859      7.73725      8.68423        -0.162415      0.303190      0.405247
Pb      15.52750      7.68251      8.78978         0.408164      0.306044      0.383031
Pb       3.81306      7.63499     13.15526         0.369251      0.813840      0.240636
Pb       0.10704      7.73143     13.20012        -0.311199      0.254327     -0.118028
Pb       3.86829     11.75218      4.36629         0.632038      0.026726      0.050258
Pb       3.83413     11.71546      0.04870        -0.040508     -0.413567     -0.402380
Pb      15.58520     11.76869      4.32202        -0.294208     -0.541991      0.918784
Pb      15.56575     11.74526     17.46004        -0.214613     -0.452451      0.450342
Pb       3.82472     11.57893      8.76776         0.672150      0.291670      0.201447
Pb      15.58988     11.70940      8.70586        -0.564718     -0.221400      0.331163
Pb       3.83539     11.69564     13.15448         0.073175     -0.184230     -0.090475
Pb      15.49390     11.65137     13.05868        -0.108947      0.194114      0.767993
Pb       7.66394      3.91168      4.34936         1.131761      0.040682      0.287899
Pb       7.73478      3.91323     17.57727         0.333658      0.244208      0.266245
Pb       7.73889      0.16185      4.35641         0.053024     -0.587700     -0.312668
Pb       7.81498      0.09992     17.45740         0.013871     -0.463285      0.683486
Pb       7.64354      3.78097      8.88975         0.225123      0.336133     -0.348254
Pb       7.78130     15.53392      8.89940         0.060234      0.155903     -0.253251
Pb       7.80662      3.90719     13.23595        -0.106056     -0.020287     -0.358664
Pb       7.78636     15.59291     13.14663         0.461728     -0.123199      0.247282
Pb       7.82219      7.95693      4.39527         0.325730     -0.354783      0.177017
Pb       7.70210      7.83034      0.07430         0.065940      0.433755      0.030065
Pb       7.73055      7.77580      8.71548         0.649409     -0.167881      0.006133
Pb       7.60119      7.82579     13.18643         0.431793      0.205072     -0.028504
Pb       7.90553     11.79807      4.36481        -0.321653      0.094567     -0.095169
Pb       7.76246     11.60768     17.57748         0.199265     -0.271333      0.188751
Pb       7.78057     11.69483      8.69876        -0.105496     -0.005035      0.211814
Pb       7.84896     11.61799     13.18891        -0.285703      0.227745      0.048401
Pb      11.67174      3.91860      4.37786        -0.319427      0.308380      0.090813
Pb      11.74063      3.84090     17.58846        -0.237515      0.061146      0.449372
Pb      11.69392      0.18709      4.42931        -0.001682     -0.394157     -0.387668
Pb      11.63439     15.55486     17.53271         0.053505      0.468476      0.338089
Pb      11.66062      3.80974      8.74340         0.140444      0.165028      0.270112
Pb      11.79806      0.03157      8.84321        -0.300451      0.183813     -0.187043
Pb      11.57477      3.81581     13.15344         1.115758     -0.046625      0.145257
Pb      11.65392     15.47539     13.06289        -0.089741      0.753533      0.868985
Pb      11.60160      7.82658      4.38961         0.219728     -0.525394      0.374699
Pb      11.45957      7.79854     17.59992         0.827208      0.196155      0.867602
Pb      11.62405      7.78558      8.68541         0.147380     -0.799248      0.326933
Pb      11.56744      7.71121     13.14703         0.497319      0.269445      0.032684
Pb      11.69223     11.79861      4.23501         0.145747     -0.192845      1.129199
Pb      11.80688     11.64331     17.47395        -0.163069     -0.070336      0.436970
Pb      11.74327     11.52472      8.71028         0.672549      0.563894      0.695697
Pb      11.64328     11.59311     13.07417         0.377244     -0.015030      0.647455
Ti       1.91207      1.94012      2.29271         0.963702      0.025282      0.620764
Ti       1.97491      1.94559     15.62397        -0.313641     -0.508856     -2.034577
Ti       1.91009     13.57298      2.37574         0.187736      1.794892     -0.713760
Ti       2.04326     13.63478     15.65551        -0.917258     -0.159990      0.097314
Ti      13.69746      1.94516      2.38353        -0.798439     -0.081585     -0.064259
Ti      13.66211      2.01730     15.63813         0.194054     -0.317937     -1.438589
Ti      13.57994     13.68486      2.41902         0.841769     -0.342911      0.247861
Ti      13.63936     13.72353     15.61874        -0.018256     -0.363212     -1.430246
Ti       1.84041      1.95045      6.78268         0.835225     -0.174771      1.567182
Ti       1.89831     13.57433      6.91454         0.921687      0.849061      0.221546
Ti      13.62382      1.92342      6.75132        -0.207320      0.666822      1.987683
Ti      13.49287     13.64523      6.74477         0.937398     -0.527578     -0.064772
Ti       1.98585      1.87085     11.23127        -0.515081      0.201737      0.488536
Ti       1.97191     13.60949     11.18986        -1.716391     -0.029153     -1.395855
Ti      13.67100      1.89768     11.12294        -0.211368      1.442093     -0.286704
Ti      13.53243     13.66803     11.23652         1.752794     -1.196335     -2.149893
Ti       2.01851      5.88104      2.49778        -0.884191     -0.500869     -0.132835
Ti       1.91852      5.83599     15.54445        -0.057467     -0.600584      1.572537
Ti      13.69013      5.82741      2.42303         0.014376      0.138512     -1.744635
Ti      13.50597      5.92247     15.69448         1.662985     -0.680028     -1.579507
Ti       2.00781      5.83417      6.80821        -0.437437     -0.646750     -0.622381
Ti      13.69313      5.78845      6.91125        -0.849715     -0.241222      0.689478
Ti       2.04221      5.75860     11.28361        -0.773269      0.109628     -1.706158
Ti      13.69491      5.86865     11.23785        -0.186883     -1.465754     -0.713364
Ti       1.97037      9.75214      2.40126         0.578948     -0.478929      0.898216
Ti       1.94007      9.66875     15.60050        -0.561269      0.592414      0.284537
Ti      13.63926      9.72431      2.39635        -0.077628      0.356186      0.421829
Ti      13.65002      9.66361     15.59470        -0.254166      0.405832      0.479761
Ti       1.96562      9.70330      6.86005         0.389631     -0.178596     -0.825509
Ti      13.70797      9.60421      6.73746         0.037205      0.992189     -0.196201
Ti       1.94033      9.73179     11.21678         0.505755     -0.854976     -1.111329
Ti      13.67355      9.63559     11.12013        -0.071391      0.657735      0.006187
Ti       5.78036      1.95808      2.33459         0.293006     -0.744990     -0.051852
Ti       5.88255      1.92518     15.51754        -1.126361      0.751516     -0.429543
Ti       5.84708     13.67285      2.32698         0.400739     -0.467058     -0.602330
Ti       5.91702     13.61770     15.64575        -0.058591      0.057311      0.239126
Ti       5.86968      1.85169      6.75272        -0.591312      0.385600      0.558962
Ti       5.81753     13.67156      6.86577        -0.120386     -0.770842     -0.132632
Ti       5.85740      1.97937     11.30194        -0.486869      0.065598     -1.278591
Ti       5.84926     13.71912     11.20307        -0.082889     -0.383992     -0.570810
Ti       5.90736      5.84391      2.49485        -0.042922      0.327287      0.382433
Ti       5.95694      5.88857     15.66539        -1.036289     -0.158308      0.548381
Ti       5.87436      5.79831      6.80889         0.480426     -0.315350     -0.459714
Ti       5.86954      5.84682     11.17274        -0.010326     -0.786390     -1.036700
Ti       5.87019      9.72925      2.44651         0.267407      0.375623     -0.700126
Ti       5.74977      9.73688     15.54382         0.790234     -0.618095      1.254458
Ti       5.94977      9.78545      6.75441        -1.185962      0.331625      0.897950
Ti       5.84532      9.79693     11.17979        -0.274257     -0.238600      1.136423
Ti       9.76041      1.95597      2.34798        -0.124028      0.939108     -0.282445
Ti       9.73871      1.97253     15.65735         0.673958     -0.599726     -0.491758
Ti       9.74575     13.70625      2.34357        -0.076080      0.117076      0.004484
Ti       9.76550     13.52560     15.63917        -0.246186      1.023133     -0.193360
Ti       9.61567      1.83090      6.86305         1.550868      1.389599      0.511350
Ti       9.71719     13.63540      6.89755         0.529160     -0.144357     -1.230610
Ti       9.72353      2.00124     11.24012         1.212277     -1.288171     -1.639956
Ti       9.70037     13.61368     11.16555        -0.219399      0.252027      0.078498
Ti       9.77185      5.84330      2.44771         0.066540     -0.223882     -0.261674
Ti       9.79544      5.82764     15.59329        -0.942702     -0.731866     -0.018619
Ti       9.68573      5.72794      6.84081         0.914286      0.366908     -0.365603
Ti       9.76413      5.80869     11.21477        -0.120222      0.089623     -0.598699
Ti       9.79679      9.77706      2.44516        -1.112466     -0.273882     -1.877581
Ti       9.73215      9.63745     15.61887         0.185240      1.394622     -0.587125
Ti       9.81266      9.74796      6.85758        -0.585772     -1.090417     -0.746692
Ti       9.78095      9.71134     11.17725        -0.223365     -0.131269     -0.445454
O       1.92320      1.80830      0.57025         0.026559      0.449045     -0.323604
O       2.01231      1.71456     13.79512         0.082618      0.656814      1.281656
O       1.89734     13.70134      0.59091         0.099312     -0.667261      0.395944
O       2.10190     13.64265     13.93730        -0.062057     -0.042160     -0.488312
O      13.62787      1.88336      0.62972         0.399150      0.309728      0.333122
O      13.69404      2.08195     13.86911        -0.136650     -0.432690      0.520882
O      13.74161     13.56256      0.66274        -0.221109      0.339937      0.197145
O      13.66308     13.74803     13.84144        -0.338368     -0.077662      0.321111
O       2.00007      1.85544      5.07397        -0.018745      0.165768     -0.995893
O       1.87817     13.68105      5.20813         0.725914     -0.350565     -1.407859
O      13.66312      1.93732      5.03338        -0.111430     -0.084882     -1.262266
O      13.49690     13.74220      4.97239        -0.023877     -0.283652      0.973946
O       1.86495      1.95438      9.53234         0.338050     -0.163844     -0.989327
O       1.78453     13.48437      9.38148         0.369004      0.478734      0.925685
O      13.61335      2.00274      9.35655         0.223240     -0.540011      0.662254
O      13.59570     13.59931      9.41425         0.206116      0.214459      1.643150
O       1.96710      5.91185      0.76520         0.148220      0.107575     -1.011591
O       1.99186      5.95749     13.84080        -0.011552     -0.137755     -1.054672
O      13.63649      5.79971      0.59850         0.258079     -0.200034      1.180854
O      13.54159      5.81011     13.90463        -0.124922      0.575527      0.607284
O       2.01183      5.73279      5.01512         0.093485      0.423910      0.616614
O      13.75182      5.71631      5.23005         0.041304      0.121606     -2.111613
O       2.07694      5.72020      9.50669         0.050459      0.104611      0.360216
O      13.75444      5.77098      9.48150         0.277810      0.191167     -0.160691
O       2.14338      9.80803      0.69945        -0.397667     -0.129779     -0.615135
O       1.78506      9.66590     13.86932         0.498051     -0.122977     -0.390573
O      13.64103      9.89048      0.68048        -0.085150     -0.279925      0.054109
O      13.65271      9.57461     13.86907        -0.181018     -0.195584     -0.590408
O       2.02917      9.69098      5.11157        -0.208733      0.070623     -0.364324
O      13.73319      9.64644      4.97657        -0.079225     -0.130023      0.457302
O       2.20278      9.73712      9.44368        -0.775675      0.159842      0.487902
O      13.62283      9.73428      9.37745         0.128697     -0.126868      0.195102
O       5.62703      1.89721      0.58252         0.558025      0.624844      0.470672
O       5.81057      1.99713     13.71535         0.406738     -0.042775      0.426838
O       5.90598     13.65268      0.54538        -0.193655      0.020526      0.227116
O       5.89593     13.63579     13.92656        -0.094241      0.021289     -0.487083
O       5.87345      1.64094      5.01403         0.048497      0.730892     -0.694931
O       5.76246     13.57737      5.15553        -0.067078      0.317650     -1.397582
O       5.86217      2.09351      9.49680         0.334087     -0.354907      0.918643
O       5.92147     13.72038      9.45763        -0.035591     -0.263163     -0.076901
O       5.77767      5.77294      0.77817         0.028085      0.050591     -1.244002
O       5.92593      5.99105     13.95849         0.285433     -0.144486     -1.318497
O       5.93203      5.85700      5.04976        -0.277476     -0.131753     -0.246186
O       5.79616      5.66826      9.37428         0.026139      0.494389      0.705100
O       5.97657      9.62160      0.67286        -0.223757      0.484449      0.533234
O       5.99313      9.62104     13.83150        -0.508716      0.087104     -0.753221
O       6.01909      9.80132      5.05310        -0.081374     -0.161212     -1.678158
O       5.87097      9.69008      9.46151         0.088569      0.309317     -0.253829
O       9.74515      1.95774      0.59574         0.008487      0.051384     -0.177406
O       9.67976      1.84882     13.89650         0.194090      0.778526      0.301101
O       9.77943     13.71994      0.61633        -0.235501     -0.043025     -0.394211
O       9.63551     13.60633     13.88368         0.378067     -0.044821     -0.007539
O       9.73274      2.12143      5.14590        -0.129686     -0.952470     -0.633741
O       9.83232     13.50804      5.12481        -0.086409      0.436907      0.662286
O       9.79399      1.92167      9.43949        -0.490353     -0.031907      0.703496
O       9.84228     13.71343      9.44666        -0.546869     -0.180284     -0.344224
O       9.82272      5.95760      0.71874         0.067465      0.013184     -1.072568
O       9.71688      5.56101     13.82615         0.248526      0.877556      0.505950
O       9.95569      5.87686      5.09088        -0.697981     -0.551906      0.256010
O       9.74199      5.78462      9.49058         0.101428      0.078773      0.101121
O       9.60443      9.66528      0.61427         0.513661      0.010225      1.074394
O       9.96420      9.72193     13.85877        -0.600797      0.200338     -0.259979
O       9.62476      9.65848      5.11313         0.405497      0.362972     -0.312919
O       9.81003      9.67692      9.42715        -0.256387      0.029790     -0.170139
O       3.89326      1.87622      2.78392        -0.179147      0.453832      0.067020
O       3.92057      2.14123     15.89746        -0.271738     -0.410914      0.270681
O       3.93611     13.59566      2.66165        -0.636868     -0.150567      0.377997
O       3.94360     13.72421     16.04367        -0.124112     -0.853022      0.201086
O       0.10720      1.93263      2.86667        -0.663535     -0.198092     -0.416266
O       0.02819      1.91879     15.96572        -0.448320     -0.055537      0.576801
O      15.56345     13.58616      3.01518         0.645486      0.695254     -1.209551
O      15.54414     13.56038     15.99857         0.326901      0.791873     -0.023239
O       4.03256      1.74113      7.20111        -0.936115      0.865608     -0.120532
O       3.92924     13.67161      7.40832        -0.506252     -0.220026     -0.610007
O      15.57564      2.11607      7.12259         0.058365     -1.069233     -0.152425
O       0.04068     13.53412      7.13682        -1.448496      0.101586      0.530808
O       3.90477      1.87280     11.68439         0.565400      0.366641     -0.103907
O       3.82064     13.61856     11.49134         1.264668     -0.487532      0.524104
O      15.58998      1.80048     11.59523         0.045334      0.171570     -0.015930
O       0.00559     13.64090     11.71417        -0.525936      0.278038     -0.384295
O       3.94297      5.86597      2.89490         0.374802      0.128320      0.412396
O       4.01438      5.87538     16.00173        -0.911398     -0.369481      0.313763
O       0.00540      5.77180      2.82280         0.110548      0.379480      0.304335
O      15.56510      5.89840     15.93775         0.330975      0.190121      0.486701
O       3.91257      5.67674      7.18343         0.416104      0.800115     -0.019301
O       0.12868      5.89380      7.33939        -0.465703     -0.450514     -0.276525
O       3.88109      5.83049     11.73938         1.022880     -0.328524     -0.090962
O       0.09945      5.91546     11.70803        -0.625322     -0.424622     -0.214456
O       3.94364      9.64224      2.81775         0.181678      0.570564      0.353976
O       3.81580      9.72569     16.01422         1.015338      0.255698     -0.225034
O       0.00628      9.80489      2.81991         0.508758     -0.277661     -0.390021
O       0.02246      9.70620     16.10331        -0.221472     -0.572342     -0.159959
O       3.96553      9.61630      7.04739         0.307859      0.460679      0.802380
O       0.02079      9.72079      7.16084         0.354433     -0.049635      0.229488
O       3.83812      9.65931     11.63614         1.133766      1.018184      0.315928
O      15.58517      9.62686     11.57471         0.141056      0.103592     -0.127058
O       7.75732      1.94351      2.77979         0.084258      0.113834     -0.029287
O       7.74666      2.02485     15.96123         0.650063     -0.167346      0.143535
O       7.88892     13.66579      2.81222        -0.459632     -0.025190     -0.005863
O       7.82985     13.77121     16.06097        -0.325609     -0.377568     -0.115117
O       7.78996      1.76707      7.21539        -0.342643      0.621504      0.306050
O       7.83496     13.56764      7.15651         0.026608     -0.187135      0.674122
O       7.89974      1.93876     11.63633        -1.975845      0.143064      0.202747
O       7.73338     13.71733     11.52860         0.905490     -0.227586      0.329106
O       7.85861      5.79435      2.62660        -0.629471     -0.205471      1.099117
O       7.87724      5.82537     16.11015         0.038048      0.525785     -0.133469
O       7.75562      5.74018      7.17146         0.796905      0.351044      0.405560
O       7.77006      5.72561     11.41956         0.156507      0.325227      0.874136
O       7.87851      9.89457      2.83775        -0.340589     -0.791022      0.345487
O       7.83907      9.61346     15.99238         0.010636      0.521109      0.067103
O       7.82649      9.81782      7.24042         0.069701     -0.335125      0.379719
O       7.82332      9.73943     11.70286        -0.599070     -0.099994     -0.518867
O      11.72440      2.01159      2.84168         0.506290     -0.340718     -0.161150
O      11.77104      1.90306     16.00475        -1.227530      0.840886      0.213025
O      11.71984     13.63739      2.74146        -0.337009      0.533915      0.115043
O      11.70279     13.72974     16.05030        -0.249587     -0.794507     -0.252507
O      11.69086      1.93283      7.25658         0.309699     -0.620809     -0.456476
O      11.72797     13.67649      7.28036        -0.533100     -0.020650     -0.154290
O      11.69736      2.00155     11.54894         0.381317     -0.303038      0.394722
O      11.67056     13.51554     11.54532        -0.228385      0.576296      0.409433
O      11.69597      5.84181      2.83302         1.536358     -0.214010      0.351764
O      11.68160      5.83643     16.12518        -1.027389     -0.114400     -0.295033
O      11.76252      5.81851      7.30566        -0.406068      0.145486     -0.015675
O      11.74785      5.75473     11.61038        -0.805730      0.059740      0.190691
O      11.64713      9.69471      2.80656         1.161849      0.022560     -0.013119
O      11.67870      9.74863     16.09645        -0.027475     -0.092075     -0.067605
O      11.71850      9.53193      7.08217         0.174104      0.718181      0.270749
O      11.71850      9.87786     11.54568        -0.376954     -1.081106     -0.014133
O       2.08887      3.95413      2.68058        -0.242103     -1.769405      0.476176
O       1.80104      3.87735     15.95984         0.762923      0.718741      0.136795
O       1.98781     15.51089      2.76282        -0.377673      0.410270      0.198412
O       1.93489      0.02552     16.03806         0.265069     -0.786992      0.166103
O      13.86649      3.83783      2.83132        -1.144735     -0.075969     -0.277739
O      13.63240      3.91661     16.03136         0.106872      0.172938      0.561760
O      13.66660      0.01734      2.92308         0.080787      0.260954     -0.512215
O      13.53953      0.01961     16.04967         1.054286     -0.604354     -0.078446
O       1.94815      3.86700      7.24304         0.427781     -0.133671     -0.239791
O       1.87609      0.00935      7.28770         0.126390      0.036401     -0.085947
O      13.66110      3.88004      7.24233         0.090734     -0.379694      0.037856
O      13.69775     15.59464      7.18482         0.022786     -0.303528     -0.162645
O       1.98973      3.80946     11.62609        -0.032201      0.281688      0.396407
O       2.04915     15.49867     11.62726        -0.648729      0.190327     -0.166294
O      13.80350      3.85834     11.56102        -0.443618     -0.089261     -0.093519
O      13.58173     15.59960     11.52100        -0.216685     -0.772466      0.162710
O       2.00333      7.78841      2.86455        -0.270025      0.967511      0.160651
O       2.02589      7.68816     16.07994        -0.463023      0.788659     -0.093919
O      13.72275      7.73170      2.72983        -0.087303      0.711059      0.160579
O      13.53259      7.79423     16.18808         0.427512     -0.066804     -0.367423
O       2.07120      7.77165      7.26489        -0.321849     -0.479298     -0.233211
O      13.72820      7.76642      7.23812         0.051870     -0.072408      0.150666
O       2.04651      7.75542     11.53383        -0.545604      0.420037      0.638107
O      13.63892      7.70631     11.36821        -0.277520      1.317839      0.970302
O       2.02821     11.71771      2.84317        -0.302071     -0.531293     -0.098788
O       1.90892     11.63579     16.05799         0.717125      0.710369     -0.032674
O      13.63804     11.68928      2.92482        -0.043723      0.039870     -0.552523
O      13.59827     11.58936     15.90024         0.172349      0.951541      0.404481
O       2.09362     11.66564      7.29826        -0.570588     -0.618456     -0.501482
O      13.61493     11.64112      7.26503        -0.075839      0.155044     -0.793980
O       1.81818     11.70368     11.69798         0.942104     -0.727084     -0.240936
O      13.66742     11.61698     11.62929         0.024993      0.533850     -0.158866
O       5.91471      3.86838      2.94711        -1.094419     -0.321118     -0.728906
O       5.91551      3.94016     16.00693        -0.042098     -0.008576      0.147060
O       5.81792     15.55007      2.72508         0.340449      0.708141      0.296132
O       5.78909      0.10641     15.97443         0.285101     -0.716203     -0.079507
O       5.97419      3.84122      7.11092        -0.442813     -0.619560      0.049565
O       5.92648     15.54266      7.20423         0.219265      0.191388      0.706412
O       5.78503      3.94511     11.61702         0.158884     -0.559359      0.590415
O       5.89057      0.04469     11.51515        -0.188909     -0.357726      0.429714
O       6.01005      7.77480      2.81519        -0.282686      0.450346      0.239478
O       5.87071      7.91392     16.15201        -0.081860     -1.361886     -0.187934
O       5.96457      7.77831      7.17104        -0.357082     -0.102318      0.056984
O       5.86196      7.73557     11.60262        -0.012128      0.595450     -0.117180
O       5.92217     11.72929      2.65699        -0.378338     -0.430444      0.575355
O       5.97513     11.60188     15.90918        -0.480135      1.003548      0.427011
O       5.80446     11.73937      7.13692         0.341640     -1.233074      0.831935
O       5.84207     11.74082     11.73514        -0.100575     -0.728301     -0.551228
O       9.84548      3.90168      2.76005        -0.445585     -0.375332      0.363942
O       9.73247      3.93689     16.17412         0.318990     -0.299907     -0.495113
O       9.74157      0.10222      2.74662         0.471818     -0.892137      0.456461
O       9.79612      0.08848     16.04133        -0.485630     -0.293444      0.148557
O       9.79140      3.85489      7.27691        -0.578616     -0.159661     -0.069422
O       9.67271     15.53780      7.32409         0.585525     -0.172162     -0.442244
O       9.71182      3.82726     11.67171         0.017659      1.214693      0.053145
O       9.77278      0.01520     11.71021        -0.168863     -0.946323     -0.450101
O       9.80456      7.77803      2.92506        -0.605342      0.715536     -0.186119
O       9.85275      7.80836     15.82273        -0.043573     -1.844284      0.342120
O       9.74729      7.70294      7.19762        -0.574902      0.441681      0.596713
O       9.74213      7.80468     11.56460         0.291167     -0.666926      0.328324
O       9.88386     11.70418      2.77839        -0.603261      0.249922     -0.140837
O       9.72205     11.70640     16.03584        -0.038587     -0.189267     -0.064334
O       9.86053     11.60541      7.31868        -0.382960      0.676235     -0.279663
O       9.64127     11.69156     11.54348         0.209214      0.135337      0.188574
