  # total energy = -7877.44831864 
CRSYTAL
PRIMVEC
    15.6000000000000000    0.0000000000000000    0.0000000000000000
     0.0000000000000000   15.6000000000000000    0.0000000000000000
     0.0000000000000000    0.0000000000000000    17.640000000000000
PRESSURE
-6.08741 -5.55686 -9.11672 0.112404 -0.337708 0.030794
PRIMCOORD
320 1
Pb       3.94092      3.89923      4.30272        -0.017824      0.391490     -0.079673
Pb       3.86558      3.74089     17.58060        -0.496759      0.200702      0.200114
Pb       3.93816      0.03679      4.43163         0.067423     -0.438767     -0.251058
Pb       3.97357      0.00948     17.54949        -0.695594     -0.267979      0.222678
Pb      15.55378      3.84111      4.31316        -0.145711      0.343448     -0.030802
Pb      15.57188      3.75680     17.53234        -0.254060      0.440878      0.105769
Pb       0.00994      0.03639      4.34824        -0.034170     -0.419175     -0.196965
Pb       0.09741     15.55187      0.02585         0.374479      0.214445     -0.392659
Pb       3.89561      3.83943      8.76453        -0.195777      0.513009     -0.215722
Pb       3.86687      0.01716      8.78446         0.288270     -0.333275     -0.264427
Pb       0.05243      3.81428      8.78226        -0.438811      0.414797     -0.333017
Pb       0.03043      0.07720      8.88041        -0.309844     -0.640044     -0.506169
Pb       3.77841      4.02138     13.13802         0.298946      0.261393     -0.136408
Pb       3.93384      0.08391     13.20462         0.020900     -0.043925      0.196706
Pb      15.58408      3.84600     13.25631        -0.579004      0.642139      0.007472
Pb      15.56884     15.58116     13.20854        -0.187086     -0.167436     -0.214979
Pb       3.86908      7.80301      4.21675         0.283666     -0.580806      0.397803
Pb       3.83152      7.79627     17.59390        -0.247521     -0.388470     -0.670423
Pb      15.53872      7.64868      4.41656        -0.530803     -0.198448     -0.246761
Pb      15.48635      7.77647     17.62875         0.471454     -0.255377     -0.392464
Pb       3.81267      7.76259      8.77398        -0.649145     -0.434729     -0.058532
Pb       0.05989      7.84072      8.66220         0.045230     -0.182930      0.148413
Pb       3.87424      7.89151     13.19361         0.066986     -0.579033     -0.311266
Pb      15.49270      7.80306     13.18470         0.088499     -0.365451      0.025122
Pb       3.90437     11.59613      4.32150         0.218476      0.414506     -0.103686
Pb       3.87262     11.65271     17.54587        -0.206112      0.058175      0.232403
Pb       0.05566     11.66103      4.44499        -0.620054     -0.099779     -0.583153
Pb       0.02245     11.57237      0.06286         0.080594      0.198124     -0.139324
Pb       3.89090     11.72986      8.73128         0.186979      0.229576      0.015176
Pb       0.03393     11.52536      8.76807        -0.479796      0.460163     -0.037362
Pb       3.95064     11.53403     13.21796        -0.750643      0.417792     -0.088977
Pb       0.08936     11.64125     13.25966         0.060324      0.095966     -0.645558
Pb       7.77945      3.94486      4.30684         0.085927      0.161836     -0.243266
Pb       7.85474      3.83885     17.59206         0.342480     -0.062676     -0.313679
Pb       7.92405      0.00080      4.38948        -0.497325     -0.309910     -0.157875
Pb       7.80937     15.46808     17.60716         0.271139      0.355738     -0.130904
Pb       7.95299      3.89971      8.73790        -0.359716     -0.194947     -0.081265
Pb       7.73495      0.00294      8.71803         0.035899     -0.258784     -0.376251
Pb       7.61556      3.80645     13.16736         0.365632      0.468934     -0.414881
Pb       7.76241     15.56132     13.15064        -0.444028     -0.207939     -0.066371
Pb       7.68092      7.77881      4.34006         0.397967     -0.304585     -0.305643
Pb       7.78785      7.74830     17.51714         0.530037     -0.023610     -0.552292
Pb       7.85120      7.82632      8.77980         0.098368     -0.183104     -0.117343
Pb       7.86900      7.67256     13.22344        -0.222753     -0.027962      0.172522
Pb       7.70378     11.61144      4.32033         0.054785      0.270611      0.211772
Pb       7.78382     11.68119     17.55727         0.052329      0.069645     -0.365374
Pb       7.76344     11.61578      8.72200         0.113590      0.881236     -0.180370
Pb       7.75146     11.55749     13.21812         0.375427      0.422761      0.088322
Pb      11.66898      3.86783      4.29777         0.241569     -0.101102      0.095720
Pb      11.59758      3.89152     17.54123         0.518007      0.144914     -0.573823
Pb      11.78742      0.05820      4.35680         0.033141     -0.134723     -0.643873
Pb      11.83080      0.05163     17.54985        -0.712624     -0.194808      0.453583
Pb      11.71643      3.89427      8.78614         0.258971     -0.153025     -0.177887
Pb      11.55742     15.58150      8.81709         0.062293     -0.147677     -0.291258
Pb      11.62799      3.82617     13.21346         0.051590      0.888228     -0.067486
Pb      11.72196      0.07605     13.24630        -0.123025     -0.481782     -0.335035
Pb      11.63341      7.85224      4.41026         0.256811     -0.373193     -0.337760
Pb      11.82087      7.86692      0.00144        -0.766829     -0.213159     -0.173824
Pb      11.79291      7.78853      8.79413         0.198877     -0.117387     -0.407859
Pb      11.66590      7.86739     13.20108         0.021069     -0.321913     -0.041057
Pb      11.70654     11.69564      4.55481         0.291390      0.066258     -0.521075
Pb      11.57667     11.75379      0.12517         0.222449      0.730270     -0.553971
Pb      11.56165     11.75550      8.87405         0.291064      0.286335     -0.778488
Pb      11.78136     11.67985     13.34089        -0.286584     -0.099730     -0.727383
Ti       1.92968      1.93546      2.45148        -0.164202     -0.451183     -2.478022
Ti       1.89230      1.90580     15.58548        -0.153806     -0.662373     -0.158129
Ti       1.86760     13.61434      2.26208         0.346400     -0.104327     -0.122706
Ti       1.94017     13.57514     15.64746        -0.241886      0.360132      0.457491
Ti      13.68048      1.92794      2.29661        -1.179973     -0.413509      0.229476
Ti      13.62679      1.89147     15.57707        -0.073228      2.377408     -0.608658
Ti      13.60459     13.55114      2.33129        -0.712004      0.423551     -0.601629
Ti      13.62560     13.69417     15.55426         0.064572     -0.287157     -0.729660
Ti       1.87475      1.88294      6.76948        -0.199012     -0.083453     -1.149168
Ti       1.89661     13.62916      6.73758        -0.524320      0.803540     -0.225665
Ti      13.58482      1.88854      6.72892        -0.357263      0.789720     -1.828896
Ti      13.62411     13.71899      6.82698        -0.420505     -1.284469      0.205496
Ti       1.87654      1.95700     11.22253         0.201266      0.140472     -1.630351
Ti       1.88427     13.69291     11.24056        -0.550080     -0.812157     -1.343653
Ti      13.59971      1.95943     11.26572        -0.121589      0.992601     -1.326668
Ti      13.51198     13.70269     11.26077         0.918426     -0.446545     -1.702663
Ti       1.99129      5.78418      2.31995        -0.138487     -0.320615     -0.355815
Ti       1.93442      5.75924     15.60117        -0.801233      0.847076     -1.433920
Ti      13.60667      5.74745      2.34326         0.537965      0.786560      0.082660
Ti      13.60433      5.91337     15.67452         0.531020     -1.556106     -2.034382
Ti       1.88253      5.77228      6.70047         0.398891      0.721246     -0.168869
Ti      13.61060      5.77875      6.78297         0.399497      0.555145     -0.501349
Ti       1.86587      5.83590     11.20854         0.076539      1.669066     -2.095739
Ti      13.63582      5.90291     11.12138        -0.869734     -0.775293     -1.140210
Ti       1.91526      9.66939      2.38758        -0.553469      0.542434     -1.891554
Ti       1.83502      9.71973     15.60761         0.285993     -0.639791     -0.655363
Ti      13.58002      9.71356      2.37950         0.464214     -0.574563     -0.019908
Ti      13.57417      9.90021     15.70321         0.286890     -1.343806     -1.558913
Ti       1.98853      9.79094      6.64277        -0.879772     -1.314230      0.874173
Ti      13.55327      9.75653      6.87909         0.651574      0.339264     -1.128613
Ti       1.89498      9.74695     11.24826         0.322271     -0.893439     -1.224954
Ti      13.61162      9.81610     11.13414         0.413933      0.135405     -1.351690
Ti       5.82152      1.87641      2.39118         0.232640      0.011758     -1.430707
Ti       5.79393      1.99585     15.65799         0.220871     -2.159714     -1.719748
Ti       5.73694     13.58840      2.37168         0.186302      0.165548     -0.451244
Ti       5.82364     13.59649     15.65508        -0.163200      0.791377     -1.365114
Ti       5.72732      2.04136      6.76509         1.120750     -1.406356     -1.114318
Ti       5.77066     13.65425      6.82257         0.656117      0.096004     -1.128609
Ti       5.81063      1.99488     11.15874        -0.260113     -0.573326     -0.706120
Ti       5.64669     13.60953     11.29023         1.122761      0.806260     -2.313601
Ti       5.87447      5.80548      2.19335        -0.321494     -0.075443     -0.626731
Ti       5.81319      5.81258     15.64749        -0.139310      0.951085     -1.913643
Ti       5.88022      5.90730      6.73885        -0.962038     -0.705263     -1.022981
Ti       5.82313      5.93993     11.08897        -0.246700     -0.109722     -1.106041
Ti       5.82666      9.69272      2.29183         0.024940      0.442587     -0.258346
Ti       5.76877      9.75517     15.53543         1.044074     -1.177750     -1.046403
Ti       5.77886      9.66113      6.81737         0.116377      1.600170     -1.906257
Ti       5.87708      9.80098     11.16777        -1.305381     -0.867352     -1.034809
Ti       9.70454      1.93542      2.39163         0.481431     -0.863632     -1.637942
Ti       9.70913      1.91622     15.56791         0.077889      0.648247     -0.286827
Ti       9.62508     13.56775      2.40578         0.960669      0.453548     -1.458643
Ti       9.74554     13.70003     15.52539         0.162079     -0.504036     -0.540508
Ti       9.72841      1.93156      6.66755        -0.266448      0.084149     -0.400073
Ti       9.69096     13.68416      6.67753         0.114752     -0.657076      0.207795
Ti       9.73086      1.87680     11.18276        -0.239153      0.441488     -1.742712
Ti       9.59873     13.66630     11.17705         0.192627     -0.314191     -1.147500
Ti       9.81354      5.81310      2.28994        -0.325067      1.010357     -1.606039
Ti       9.76389      5.86836     15.55864         0.396116     -0.098999     -1.129367
Ti       9.71468      5.80524      6.80070         0.706109      0.369870     -2.375874
Ti       9.69224      5.81743     11.15065         0.902499     -0.720487     -0.766882
Ti       9.72578      9.67635      2.30570        -0.048040     -0.103222     -1.356508
Ti       9.75663      9.77114     15.63018        -0.548861     -0.715096     -1.800932
Ti       9.68362      9.71244      6.81152         0.587251      0.608037      0.115530
Ti       9.70562      9.78332     11.22365         0.735992      0.422603     -1.489765
O       1.82480      1.98392      0.56850         0.564721     -0.192037      1.700966
O       1.82103      1.93143     13.82149         0.189847      0.137857     -0.608813
O       1.91548     13.55463      0.46392        -0.320424      0.210286      0.839086
O       1.93162     13.40302     13.90400        -0.272781      0.296053     -0.051576
O      13.57597      1.95174      0.51206         0.149759     -0.233644      0.486951
O      13.56867      1.97304     13.74271         0.191760     -0.275947      0.924926
O      13.42062     13.51812      0.51688         0.417616      0.223500      1.301846
O      13.65173     13.74274     13.71461        -0.224001     -0.440079      1.679189
O       1.90418      1.66861      4.92141        -0.113176      0.703214      1.117906
O       1.72681     13.86736      4.95999         0.419726     -0.700812      1.062480
O      13.48246      1.91276      4.82112         0.554366     -0.180633      2.002970
O      13.55784     13.53799      5.06025         0.250156      0.374646      0.111811
O       1.77601      2.05964      9.29343         0.252113     -0.308408      2.065667
O       1.97024     13.56765      9.45295         0.102451      0.460206      0.977591
O      13.54803      2.07114      9.42248         0.332407     -0.616403      1.555645
O      13.48226     13.78804      9.44934        -0.039723      0.131832      0.620172
O       2.08956      5.76054      0.55190        -0.219274     -0.071705      0.237463
O       1.89157      5.83023     13.73613         0.196250     -0.565785      1.125034
O      13.67015      5.72376      0.60983        -0.328867      0.159746     -1.010718
O      13.80352      5.85177     13.86898        -0.298400      0.414983      0.768767
O       1.88376      5.80263      4.91871        -0.132659      0.160852      0.220872
O      13.68250      5.98103      4.97995        -0.160412     -0.287263      0.469996
O       1.84430      5.99608      9.29344         0.323898     -0.637685      1.753077
O      13.57053      5.82677      9.27674         0.010823      0.087877      1.474713
O       1.85347      9.66311      0.50985         0.168998      0.042142      2.002187
O       1.77500      9.88134     13.78976         0.373036     -0.306184      0.868230
O      13.69793      9.71471      0.56895        -0.499281      0.244190      0.544491
O      13.49163      9.75957     13.86333         0.475290      0.531406      1.047832
O       2.06532      9.82256      4.86735        -0.316531     -0.094039      0.088989
O      13.56815      9.77885      5.03564        -0.188648     -0.171309      0.590976
O       1.76156      9.55787      9.44041         0.756038      0.645416      0.764194
O      13.77315      9.75924      9.24445        -0.728782     -0.200116      2.363051
O       5.74360      1.98481      0.54344         0.127394     -0.239642      0.983964
O       5.71704      1.76505     13.81968         0.417140      0.795342      1.045429
O       5.78107     13.49654      0.58713         0.223239      0.121804     -0.173195
O       5.84972     13.71131     13.86492        -0.178890     -0.305690      0.770660
O       5.78471      1.89528      4.93613        -0.198880      0.548935      1.006770
O       5.75318     13.67446      5.05202         0.113703      0.024877     -0.284040
O       5.75963      1.83586      9.37736        -0.072451      0.341406      0.459972
O       5.75649     13.61702      9.39849        -0.537200     -0.048859      1.774337
O       5.80434      5.78609      0.36056         0.034703     -0.083862      1.113343
O       5.73961      5.86108     13.78846         0.319069     -0.454911      1.054403
O       5.82146      5.95894      4.88124         0.412166     -0.408273      1.582207
O       5.88888      5.97835      9.23653        -0.036745     -0.105950      1.538625
O       5.79827      9.84448      0.54073         0.085214     -0.340575     -0.015128
O       5.91217      9.68762     13.70763        -0.436953      0.403895      0.933695
O       5.64667      9.75310      4.94461         0.486763     -0.362786      1.336859
O       5.78827      9.83289      9.34335         0.329609     -0.174753      0.816067
O       9.54125      1.87288      0.57773         0.595063      0.366907      0.531808
O       9.78800      1.91581     13.79067        -0.352055     -0.110419      0.256872
O       9.65422     13.52223      0.46572        -0.191047     -0.085365      1.738720
O       9.69664     13.78519     13.75029         0.098333     -0.179347      0.279237
O       9.69542      1.96649      4.83911         0.171573      0.161034      0.673230
O       9.58488     13.64900      4.88355         0.139937     -0.113445      0.249482
O       9.79090      1.77453      9.34063        -0.318950      0.722732      1.212909
O       9.60762     13.76761      9.32870         0.489157     -0.275047      1.710454
O       9.75223      5.83771      0.40485         0.032635     -0.027424      1.745770
O       9.85946      5.80373     13.73962        -0.789275      0.272700      0.363982
O       9.74196      5.82598      4.89580        -0.208852     -0.093117      1.502576
O       9.58014      5.72635      9.25527         0.148112      0.575475      1.500045
O       9.76342      9.53550      0.42902        -0.199646      0.967687      1.317866
O       9.74031      9.75125     13.75047         0.101745     -0.243596      0.615290
O       9.57686      9.82447      5.07304         0.490226     -0.238886     -0.453163
O       9.81182      9.74998      9.34636        -0.520527     -0.331418      1.848885
O       3.93330      1.96829      2.80529        -0.229285     -0.384407     -0.097523
O       3.76784      1.83387     16.01533         1.064666      0.543414      0.100596
O       3.76113     13.61415      2.70435         0.527329      0.102748      0.193515
O       3.84174     13.57967     16.03882         0.401212     -0.240959     -0.117645
O      15.53940      2.01990      2.67138         0.510776     -0.186366      0.405022
O      15.56685      1.83012     16.11529        -0.585275      0.048064     -0.591971
O      15.54222     13.64853      2.61584        -0.610266     -0.252467      0.165473
O      15.46923     13.68803     15.95196         0.388208     -0.265152      0.209415
O       3.80112      1.95539      7.14698         0.289927     -0.043309      0.143983
O       3.86546     13.60073      7.07293        -1.301900      0.393836      0.587848
O      15.54122      1.90689      7.13650         0.262756      0.125979      0.013795
O      15.59077     13.68406      7.23949        -0.101475     -0.123283     -0.156977
O       3.80089      2.02907     11.48729        -0.112770      0.089729      0.301691
O       3.76794     13.70062     11.68473         0.928973     -0.533157      0.065222
O      15.53740      1.97125     11.67767         0.269203     -0.287503     -0.441581
O      15.56970     13.79644     11.51999         0.801652     -0.365207      0.576536
O       3.89294      5.75015      2.73394         0.589155      0.030058     -0.048884
O       3.83959      5.81855     15.87375        -0.051172     -0.337036      0.636355
O      15.54337      5.88517      2.74364         0.948458     -0.461255      0.274124
O       0.06562      5.83515     16.05706        -0.617444     -0.121944      0.284716
O       3.85225      5.86241      7.10456         0.362590      0.052040      0.124512
O      15.49696      5.82258      7.12675         1.007181     -0.061429     -0.210479
O       3.89170      5.71753     11.43308         0.213991      0.354305      0.261448
O      15.52248      5.94987     11.48871         0.080663      0.071359      0.199924
O       3.82412      9.78593      2.70174         0.195275     -0.024235     -0.086531
O       3.87259      9.80672     15.87053        -0.272960     -0.597052      0.114435
O      15.53216      9.78246      2.80098         0.426329     -0.585248     -0.022367
O      15.57320      9.78940     16.07907        -0.742920     -0.211670     -0.199314
O       3.93962      9.63522      7.24892        -0.747571      0.625240     -0.328744
O       0.03952      9.79435      7.16143         0.507782      0.028116     -0.610307
O       3.90333      9.76336     11.59326         0.167090     -0.199225      0.294351
O       0.05069      9.70584     11.61662        -1.793053      0.135214      0.172266
O       7.81912      1.98950      2.69387        -0.961058      0.145790      0.583517
O       7.76437      1.91040     16.01219        -0.317671      0.109202     -0.240052
O       7.61857     13.61051      2.77387         1.349812      0.001141     -0.023288
O       7.81864     13.61100     15.95175        -0.813691     -0.012643      0.381397
O       7.78806      1.93852      6.98535        -0.321635      0.211228      0.477120
O       7.81837     13.64924      7.19198        -0.300632      0.151286     -0.094416
O       7.71591      1.87774     11.55684         0.340207      0.103184      0.213340
O       7.73150     13.60904     11.58462         0.147317      0.405260      0.206932
O       7.80426      5.88379      2.61600        -0.332447      0.071044      0.161552
O       7.80387      5.82303     15.88741        -1.012891     -0.215391      0.275021
O       7.81327      5.62950      7.06399        -1.123087      0.632495      0.068872
O       7.72277      5.91707     11.56867         0.369001     -0.643647     -0.000347
O       7.74272      9.57172      2.73460        -0.027069      0.597446     -0.146824
O       7.77175      9.70102     15.85433        -0.149835      0.037947      0.715745
O       7.77210      9.76979      7.17117        -0.628246      0.009574      0.346188
O       7.72123      9.87313     11.47502         1.221935     -0.500353      0.203643
O      11.66662      1.93816      2.70568        -0.367021     -0.006055     -0.017631
O      11.72793      2.08357     15.98966        -1.061085     -1.120891     -0.017580
O      11.58572     13.65798      2.66977         0.065305     -0.540315      0.362261
O      11.67746     13.62607     15.96931        -0.234507      0.042968     -0.119595
O      11.71132      1.95217      7.08243        -0.780065     -0.098079      0.140023
O      11.63917     13.55867      7.08739         0.234697      0.862678      0.319563
O      11.58358      2.04242     11.58757         0.916542     -0.878743      0.133414
O      11.71304     13.63028     11.65953        -1.513780      0.116231      0.102301
O      11.73842      5.78409      2.73942        -1.019653      0.298225      0.038516
O      11.69237      5.81042     15.81363         0.081914      0.172051      0.935411
O      11.64621      5.83725      7.15765         0.053407      0.215724      0.134331
O      11.69331      5.86070     11.46569        -0.521262      0.021700     -0.025014
O      11.60684      9.73006      2.82096         0.322906      0.315848     -0.255377
O      11.72721      9.71112     16.05593        -0.866666      0.074808      0.187470
O      11.66971      9.64517      7.21225        -0.514477      0.136316     -0.076019
O      11.69010      9.82382     11.69434        -0.323377      0.013218     -0.714191
O       2.03683      3.81236      2.78741        -0.683631      0.675204      0.311110
O       1.79120      3.76174     15.92243         0.679109      1.223296      0.124830
O       1.78792      0.03778      2.65850         0.355547     -0.616394      0.051157
O       1.92166     15.54562     15.99235        -0.281675     -0.659369      0.167578
O      13.62143      3.83344      2.81003         0.052465      0.253817     -0.116483
O      13.56928      3.90611     15.95963         0.842441     -0.401705      0.411292
O      13.58544     15.55394      2.74809         0.107917     -0.028819     -0.321967
O      13.54410      0.06935     15.92878        -0.052192     -1.502193      0.083087
O       1.88784      3.88742      7.00570        -0.062743     -0.409788      0.401971
O       1.87811      0.02354      7.27891         0.344115     -0.417592     -0.044303
O      13.61014      3.82760      7.05618        -0.031975      0.681049      0.193352
O      13.59277      0.03123      7.15040         0.096031     -0.480216      0.018098
O       1.79262      3.99050     11.57176         0.205497     -1.302251      0.126438
O       1.95220      0.07259     11.58422        -0.311171      0.131306     -0.197843
O      13.59792      3.91804     11.56901         0.296328     -0.005881      0.159300
O      13.61514      0.00274     11.73385        -0.252839      1.342931     -0.359523
O       2.11152      7.67259      2.55973        -0.798648      1.532797      0.580010
O       1.81605      7.76733     15.84364         0.766183      0.473352      0.584036
O      13.55471      7.74831      2.58720         0.089911      0.895323      0.694317
O      13.59232      7.77958     16.04041         0.551805      0.509603      0.442555
O       1.91150      7.86494      6.96762         0.001253     -0.246054      0.240750
O      13.67598      7.82473      7.19938        -0.494593     -0.572972      0.007491
O       2.01719      7.74231     11.63790        -0.052563      0.167979      0.318666
O      13.50098      7.90172     11.59812         0.645975     -0.433070     -0.355067
O       1.79647     11.70072      2.74980         0.402675     -0.312877     -0.149132
O       1.88345     11.58712     16.15247        -0.158785      0.990191     -0.413978
O      13.50259     11.63815      2.85313         0.358097      0.590470     -0.390397
O      13.54684     11.69300     16.04486         0.224509      0.967423     -0.338676
O       1.93648     11.69864      7.13763         0.320487     -0.069697     -0.389528
O      13.59256     11.65487      7.22841         0.077315      0.605198      0.157334
O       1.97959     11.60297     11.60785        -0.427926      1.319930      0.117302
O      13.67381     11.74385     11.40208         0.053696     -1.150351      0.755532
O       5.85391      3.92800      2.65216         0.132436     -0.254928      0.367245
O       5.70292      3.78531     15.86397         0.315046      1.170785      0.345916
O       5.84250     15.54446      2.70915        -0.323403      0.890846     -0.056607
O       5.70615     15.55177     16.02458         0.724337     -0.380486      0.281704
O       5.71829      3.88044      7.22647         0.319050      0.086738     -0.465683
O       5.74247     15.57930      7.12845        -0.037937      0.995072      0.586365
O       5.86944      3.88004     11.45783         0.067085      0.147072      0.308678
O       5.70701     15.54252     11.63381         0.241887      0.367596     -0.024876
O       5.74519      7.76625      2.52451        -0.175059     -0.116075      0.385434
O       5.76109      7.73258     15.90060         0.030532      0.587475      0.543921
O       5.91141      7.77526      7.01366         0.329535     -0.027928      0.480240
O       5.86027      7.83916     11.52179        -0.312301     -0.365365     -0.112763
O       5.86351     11.65353      2.78263        -0.570998     -0.352709     -0.012340
O       5.79057     11.61585     15.93434         0.385275      0.899903      0.115001
O       5.78564     11.75887      7.06052         0.133763     -1.568657      0.807755
O       5.78430     11.71895     11.67096        -0.148507     -0.048680     -0.049069
O       9.80485      3.99486      2.56710        -0.501584     -1.298590      0.557327
O       9.72833      3.90214     15.81270        -0.246812     -0.921507      0.998936
O       9.67449     15.53647      2.69905        -0.372165      0.411320      0.197677
O       9.73578     15.59929     15.90704         0.077061      0.122150      0.412532
O       9.75268      3.87456      7.16058         0.127748     -0.533237     -0.062262
O       9.73783      0.03895      7.03459         0.061877     -0.215020      0.022451
O       9.72897      3.88429     11.52398        -0.735890      0.245326      0.059472
O       9.74220     15.58221     11.39614        -0.044708      0.029819      0.998660
O       9.82443      7.84581      2.62806        -0.257390     -1.042084      0.690195
O       9.71989      7.74889     15.86383        -0.008363      0.524132      0.311447
O       9.61311      7.78597      6.99634        -0.035480     -0.557798      0.802419
O       9.69590      7.71850     11.59207        -0.080064      1.027150     -0.334717
O       9.62606     11.64480      2.70383        -0.166500      0.012561     -0.108516
O       9.70676     11.63485     15.65927         0.249306      0.731816      1.209176
O       9.83032     11.75335      7.22431        -0.750257     -0.707660     -0.184484
O       9.69399     11.69362     11.44647         0.095631     -0.132938      0.342025
