  # total energy = -7880.42559475 
CRSYTAL
PRIMVEC
    15.3600000000000000    0.0000000000000000    0.0000000000000000
     0.0000000000000000   15.3600000000000000    0.0000000000000000
     0.0000000000000000    0.0000000000000000    17.440000000000000
PRESSURE
0.76517 1.09715 -3.70426 -0.319131 -0.249962 -0.004023
PRIMCOORD
320 1
Pb       3.85949      3.83110      4.28194        -0.008715     -0.305279     -0.567904
Pb       3.76336      3.88630     17.39993         0.090865     -0.084912     -0.005929
Pb       3.87248     15.34735      4.27362         0.049951     -0.176665     -0.154696
Pb       3.93799     15.31596      0.02654        -0.577046      0.364531     -0.186526
Pb      15.31644      3.90172      4.31441        -0.205383     -0.135608      0.067052
Pb      15.22472      3.72336     17.34905         0.124962      0.561773      0.355054
Pb      15.30952      0.00793      4.39669        -0.716787     -0.494308     -0.315151
Pb       0.16691      0.04875     17.37398        -0.393903     -0.320866      0.427500
Pb       3.96927      3.86721      8.61971        -0.392260     -0.356720      0.300932
Pb       3.80702     15.29614      8.65842        -0.029306      0.129968      0.098277
Pb       0.15795      3.74421      8.71199        -0.465174      0.548986     -0.130898
Pb       0.11582     15.28963      8.63617        -0.620245     -0.059482     -0.225576
Pb       3.91482      3.93253     13.10489        -0.713127     -0.342186     -0.047809
Pb       4.01040      0.05624     13.19057        -0.534056     -0.023802     -0.199938
Pb      15.29634      3.88390     12.95395         0.120254      0.411088     -0.061486
Pb      15.32385     15.35295     13.05398        -0.411280     -0.382153     -0.023254
Pb       3.77744      7.64555      4.35509         0.167241      0.449193     -0.243764
Pb       3.89207      7.75817     17.42655        -0.275483     -0.415866     -0.392141
Pb      15.18799      7.53691      4.31824         0.317614     -0.032780      0.241431
Pb       0.18628      7.59914      0.00336        -0.855004      0.029592      0.032770
Pb       3.75629      7.65746      8.63368        -0.095023      0.102108     -0.139119
Pb      15.30510      7.73467      8.63554         0.036315     -0.435036      0.389653
Pb       3.87287      7.77758     13.08604        -0.638851      0.030245     -0.476243
Pb      15.26651      7.73241     12.95010         0.282085     -0.325164     -0.137208
Pb       3.91159     11.42164      4.40596        -0.328231      0.211155     -0.405497
Pb       3.67740     11.50877      0.02447         0.659927      0.032756     -0.208689
Pb      15.29572     11.36579      4.36982         0.354302      0.769687     -0.022294
Pb       0.07873     11.40794      0.08382        -0.420714      0.300736     -0.192709
Pb       3.80745     11.45880      8.65355         0.118187      0.075746      0.041592
Pb       0.07839     11.64563      8.63723        -0.659825     -0.340355      0.045479
Pb       3.74753     11.57572     13.04437        -0.139144     -0.535201     -0.179576
Pb      15.16525     11.46075     12.95133         0.601127     -0.117792      0.307251
Pb       7.57368      3.94446      4.23310         0.118436     -0.316241      0.232913
Pb       7.66713      3.80530      0.00721        -0.575002      0.039765     -0.344173
Pb       7.55434     15.29268      4.30608         0.439049      0.050666     -0.047685
Pb       7.82651     15.25789      0.02439         0.038298      0.307203     -0.358898
Pb       7.68871      3.84492      8.63939         0.195431     -0.819001      0.164274
Pb       7.70041      0.10656      8.71051        -0.276375     -0.137934      0.007380
Pb       7.56139      3.68714     13.00114        -0.210778      0.026727      0.189410
Pb       7.68887     15.14461     13.13758         0.285227      0.404403     -0.357473
Pb       7.64878      7.78666      4.39379         0.394353     -0.000728     -0.302998
Pb       7.69518      7.58080     17.37845         0.018689      0.341167      0.084448
Pb       7.69805      7.55427      8.74421         0.222326      0.403643     -0.562694
Pb       7.78941      7.66394     13.12555        -0.401062      0.297974     -0.323090
Pb       7.64195     11.48252      4.31763         0.244898     -0.042183     -0.006536
Pb       7.67139     11.43911     17.32939         0.230376     -0.249877      0.552252
Pb       7.72684     11.50945      8.79658        -0.128393     -0.383963     -0.688012
Pb       7.55744     11.51087     13.05813         0.502287     -0.319680     -0.211816
Pb      11.57321      3.92655      4.34997        -0.470347     -0.196041     -0.011770
Pb      11.35517      3.79075     17.37999         0.316787      0.478358      0.104376
Pb      11.55176      0.10554      4.37663        -0.471202     -0.726828      0.279611
Pb      11.63699      0.06778     17.38443        -0.543496     -0.775205      0.755130
Pb      11.66418      3.67008      8.67740        -0.525636      0.461723      0.267229
Pb      11.52040      0.05574      8.69223         0.152394     -0.330893     -0.131510
Pb      11.42969      3.88035     12.89122         0.872452     -0.318339      0.338987
Pb      11.45107     15.32771     13.13230         0.242541     -0.120696     -0.330963
Pb      11.53815      7.65350      4.43170        -0.596902     -0.208930     -0.663138
Pb      11.43604      7.71897     17.32965         0.607488     -0.562033      0.309461
Pb      11.50821      7.62874      8.67834        -0.177986     -0.201150      0.169560
Pb      11.60558      7.64891     13.08813         0.149698      0.153082     -0.370705
Pb      11.41423     11.55899      4.34557        -0.090771      0.447394     -0.177514
Pb      11.58930     11.54520     17.41165        -0.196382      0.025468     -0.189055
Pb      11.40509     11.52935      8.72404         0.434753     -0.100475     -0.157601
Pb      11.45722     11.58838     13.09736        -0.137496     -0.094366     -0.308691
Ti       1.75975      1.91779      2.39440         1.410932      0.133187     -1.803462
Ti       1.79891      1.95517     15.36014         1.138347      0.129966      0.095746
Ti       1.84247     13.44643      2.43135         0.194678     -0.885905     -0.066928
Ti       1.88340     13.43868     15.35688        -0.112432      0.637890     -1.668861
Ti      13.35084      1.90816      2.35329        -0.373118     -0.526131     -0.737396
Ti      13.28737      1.92088     15.41370        -0.173665     -0.086089     -2.368708
Ti      13.37596     13.38019      2.38064         0.028594      0.849846     -0.481465
Ti      13.50237     13.39975     15.43208        -0.655142      0.018989     -1.331199
Ti       1.89408      1.80086      6.48231        -0.749808      0.491818      0.497767
Ti       1.96018     13.39379      6.51864        -1.042999     -0.742623     -1.406367
Ti      13.44679      1.90828      6.65815        -0.385451     -1.049947     -0.942588
Ti      13.32977     13.42557      6.66285        -0.117098     -0.061114      0.399023
Ti       1.82766      1.83511     11.11655         0.772029      1.492646     -1.040092
Ti       1.90678     13.45274     11.16311        -1.094455     -0.558283     -0.802479
Ti      13.36709      1.84922     11.07829        -1.162159     -0.222256     -1.297852
Ti      13.39573     13.39607     11.05999        -0.758683      0.011272     -1.360739
Ti       1.88380      5.74394      2.36461         0.376722     -0.392096     -0.825892
Ti       1.79979      5.74572     15.39184         0.588415      0.029772     -0.361677
Ti      13.31707      5.69745      2.16427        -0.261321      0.212748     -1.831271
Ti      13.37930      5.76103     15.37324        -0.177959      0.351257     -0.503731
Ti       1.93104      5.61420      6.55366        -1.958763      0.529983     -1.007509
Ti      13.38073      5.71679      6.73102         0.816090      0.227249      0.299138
Ti       1.95488      5.75053     11.01314        -1.068541      0.326151      0.649227
Ti      13.39971      5.74698     11.00327         0.409149     -0.125139     -2.165002
Ti       1.96695      9.54764      2.37291        -0.444473      0.642691     -0.267698
Ti       1.89557      9.62725     15.37900         0.394521     -0.695354     -1.498099
Ti      13.47246      9.49645      2.41507        -0.855636      0.333214     -1.408179
Ti      13.53687      9.57261     15.42488        -1.348943     -1.123589     -1.564953
Ti       1.89104      9.54269      6.68295        -0.227002     -0.180783     -0.217067
Ti      13.37657      9.59415      6.67336         0.396495      0.100855      0.258481
Ti       1.91840      9.62781     11.00312        -0.874230     -0.777366      1.203012
Ti      13.30962      9.56700     10.98943         1.265873     -0.323382     -0.727058
Ti       5.66593      1.91299      2.28304         0.385396     -0.273642     -0.435627
Ti       5.69879      1.88564     15.40589        -0.547437      1.398814     -0.094872
Ti       5.69135     13.35766      2.22398        -1.011189      0.309656     -1.066028
Ti       5.68213     13.35871     15.50316         0.550817      0.117060      0.264000
Ti       5.61647      1.85256      6.61346         0.991231      0.360931     -0.923464
Ti       5.71789     13.43311      6.74200         0.647638     -0.147559     -0.583911
Ti       5.63881      1.84320     11.04398         0.481036     -0.343384      0.205517
Ti       5.70802     13.35121     11.02891        -0.242283      0.208253     -1.681042
Ti       5.71270      5.82214      2.23901         0.142064     -0.832320     -1.033210
Ti       5.69707      5.78424     15.39637         0.476738     -0.939767      0.609541
Ti       5.70790      5.72972      6.58609         0.895342      0.286080      0.003292
Ti       5.72885      5.71478     11.04302        -0.686409      0.172215     -0.824443
Ti       5.77582      9.53863      2.32647         0.747642      0.424588     -0.580858
Ti       5.78933      9.61105     15.34886        -0.332520     -0.618584      0.267031
Ti       5.80291      9.60711      6.78043         0.361455     -0.396588     -0.970656
Ti       5.75764      9.51448     10.97550        -0.748653      0.721753     -0.666789
Ti       9.48402      1.98033      2.47061         0.500050     -0.413454     -1.070918
Ti       9.56624      1.92860     15.28106         0.247521     -1.057772     -0.934290
Ti       9.52949     13.52241      2.30954         0.432079     -0.471954     -0.268430
Ti       9.60883     13.41535     15.44299        -0.003725     -0.195352     -0.600802
Ti       9.53267      1.83062      6.69426         0.001608      0.536727     -0.728379
Ti       9.49423     13.43587      6.71600         0.652546     -0.127112     -1.811042
Ti       9.55265      1.89069     11.08946        -0.346557     -1.393516     -1.391768
Ti       9.52629     13.41541     10.97462         1.491530     -1.006737      0.335934
Ti       9.56567      5.78011      2.30615         0.001243      0.643300      0.056328
Ti       9.57227      5.74170     15.26799         0.392533     -0.187689     -0.193030
Ti       9.50180      5.66655      6.73401         0.933964      0.312348      0.102097
Ti       9.48286      5.66580     11.09003         1.500239      1.409753     -1.885387
Ti       9.69548      9.68480      2.32127        -2.043767     -1.322507     -0.163528
Ti       9.66471      9.53972     15.38081        -0.449188      1.089661     -1.371967
Ti       9.60317      9.56710      6.56979        -1.265855      0.027915     -0.391293
Ti       9.56782      9.53250     11.02481         0.179861      0.871335     -0.574657
O       1.92346      1.87242      0.54151        -0.648813      0.204983      0.863235
O       1.70141      1.89737     13.61180         0.100770     -0.043980     -0.458897
O       1.87624     13.38146      0.60470        -0.056331     -0.062102      0.395900
O       1.74684     13.46401     13.52128         0.413852      0.006821      1.024505
O      13.36508      1.86338      0.52336        -0.166634      0.296723      0.585017
O      13.10009      1.78018     13.52031         0.949331      0.591889      1.763920
O      13.47883     13.47977      0.59417        -0.145960     -0.598829      0.023055
O      13.47445     13.28703     13.61706         0.100757      0.641906      0.892301
O       1.60350      1.81253      4.74689         1.001564      0.116918     -0.428792
O       1.93076     13.27448      4.70649         0.016668      0.524954      1.446370
O      13.43146      1.93293      4.82137         0.019391     -0.143456      0.846611
O      13.25185     13.47103      4.92442        -0.014828     -0.116298     -0.928703
O       1.93534      1.90695      9.29698        -0.283430     -0.154734      0.609838
O       1.91589     13.42045      9.36640        -0.242920      0.085408     -0.287913
O      13.26279      1.81244      9.20548         0.398193      0.370787      0.892270
O      13.32427     13.17652      9.24533         0.331359      0.651974      0.650312
O       1.89895      5.74603      0.57018        -0.490378      0.176026      0.464169
O       1.75924      5.73001     13.62595         0.285270      0.188854      0.369062
O      13.25396      5.67514      0.30310         0.396359      0.032773      2.069598
O      13.40652      5.97355     13.54425        -0.086477     -0.913564      0.112580
O       1.75836      5.57147      4.70970         0.699382      0.918890      1.266049
O      13.36977      5.67870      4.91430        -0.312318      0.216416      0.471282
O       1.88868      5.65374      9.25198         0.308902     -0.320227     -0.678529
O      13.56652      5.60671      9.16334        -0.677695      0.386276      0.275901
O       1.83552      9.45267      0.53150         0.307899      0.740785      0.978236
O       1.92494      9.53356     13.53717         0.022171      0.325401      2.145044
O      13.49798      9.53234      0.62551        -0.125985      0.283573      0.157748
O      13.39667      9.44203     13.57464         0.326886      0.277528      1.094710
O       1.97356      9.45259      4.92812        -0.114323      0.555456     -0.328999
O      13.36395      9.29163      4.88465         0.023339      0.705687      0.037024
O       1.89620      9.51991      9.25875         0.343973      0.472820     -1.207653
O      13.40666      9.69393      9.22156        -0.075511     -0.453682     -0.231613
O       5.89348      1.84649      0.48940        -0.727672      0.055166      0.089169
O       5.58717      2.07458     13.57035         0.658117     -0.739250      1.195904
O       5.53152     13.52316      0.37552         0.447707     -0.192651      0.822343
O       5.79497     13.22287     13.74276        -0.012676      0.478862     -1.008334
O       5.44004      1.91246      4.81619         1.060917     -0.312350      0.836906
O       5.65931     13.49072      4.96595         0.090325     -0.389987     -0.252888
O       5.65311      1.62668      9.27988        -0.223763      0.815084      0.162687
O       5.74282     13.36709      9.20176        -0.385556      0.291612      1.151503
O       5.79739      5.67079      0.41125         0.129368      0.759314      1.273765
O       5.87118      5.69792     13.61332        -0.668595     -0.212486     -0.216492
O       5.89399      5.75564      4.80878        -0.922595      0.134719      0.736283
O       5.69716      5.65314      9.22612        -0.195831      0.036875      0.742673
O       5.83421      9.53664      0.56682        -0.277366     -0.481018     -0.540097
O       5.75132      9.45614     13.58713        -0.122840      0.823841     -0.043492
O       5.73104      9.55733      4.91573        -0.135145      0.072965      0.513199
O       5.75267      9.70402      9.12935        -0.084757     -0.854074      1.139608
O       9.68582      2.12136      0.67624        -0.744540     -0.520051      0.215659
O       9.56653      1.67180     13.48042        -0.090193      0.676746      0.550048
O       9.63369     13.45411      0.50260        -0.510855     -0.097538     -0.032467
O       9.54709     13.33097     13.62796        -0.406888      0.261530      0.456443
O       9.41703      1.74487      4.92484         0.128255      0.389963     -0.373457
O       9.42151     13.47975      4.84411         0.191985     -0.254664      1.137112
O       9.52906      1.77673      9.25487         0.219718      0.276534      0.965967
O       9.71257     13.14186      9.18747        -1.044338      1.099892      0.844581
O       9.65924      5.72699      0.53679        -0.405082     -0.087022     -0.382478
O       9.55739      5.85529     13.45133        -0.142882     -0.216504      0.259189
O       9.57888      5.65534      5.00221        -0.245808     -0.133555     -0.659347
O       9.54805      5.79132      9.27343        -0.756605     -0.266152      0.250709
O       9.49418      9.59986      0.51514         0.609911      0.167344      0.330161
O       9.68512      9.56658     13.52346        -0.491548     -0.387960      1.512984
O       9.50856      9.58169      4.72316         0.419760      0.171197      1.162005
O       9.46732      9.69898      9.21648        -0.018613     -0.531401      0.641050
O       3.73812      1.89847      2.80570        -0.193904     -0.181082     -0.517502
O       3.78053      2.10289     15.70568         0.683359     -0.871836     -0.043036
O       3.79616     13.40610      2.72346        -0.328189     -0.097378     -0.068957
O       3.79723     13.36407     15.66764        -0.705481      0.360127      0.435181
O      15.25331      1.99268      2.63306        -0.118561      0.039918      0.064319
O      15.25221      1.93071     15.82542         0.120100      0.103791     -0.363589
O      15.23517     13.30077      2.91780         0.312166     -0.026821     -0.555449
O       0.00785     13.49493     15.80693         0.060178     -0.019657      0.172744
O       3.77013      1.83515      6.98771        -0.250633     -0.068592      0.328701
O       3.79933     13.42719      7.02494         0.156586     -0.239051      0.320841
O       0.02520      1.74742      6.97221        -0.030318      0.431996      0.557338
O      15.27327     13.34636      6.92776         1.244439      0.340084      0.531565
O       3.76375      1.75317     11.54410        -0.179818      0.551920     -0.204532
O       3.75610     13.38782     11.40112         1.165122      0.206356      0.567925
O      15.17631      1.92166     11.32904         1.591380     -0.085175      0.494644
O      15.22763     13.46805     11.38061         0.813885     -0.129315      0.377162
O       3.81998      5.73972      2.51463        -0.792395      0.036937      0.871858
O       3.80256      5.74193     15.95392         0.151643      0.524546     -1.119964
O      15.16847      5.66218      2.66104         1.101268      0.223441     -0.200775
O      15.29313      5.64695     15.83525         0.523527      0.205898     -0.083099
O       3.80197      5.58880      7.01234        -0.236790      0.792804     -0.239474
O      15.32149      5.70363      6.94612         0.711084     -0.290596      0.138689
O       3.80214      5.73395     11.40779         0.466134     -0.640781      0.309940
O      15.27850      5.74828     11.30561         1.356822     -0.078190      0.756281
O       3.81818      9.57263      2.76322        -0.314163      0.098412      0.000336
O       3.80659      9.58362     15.84160        -0.065399     -0.096839     -0.268161
O      15.31988      9.54196      2.77464         0.142104      0.064283      0.109469
O      15.33896      9.57994     15.87276         1.140290     -0.110242     -0.167433
O       3.79459      9.57410      7.09378         0.136931      0.005850      0.167552
O      15.31369      9.58951      7.09996         0.159527      0.177995     -0.321337
O       3.78043      9.69884     11.46621         0.951305     -0.055242     -0.036632
O      15.35686      9.45185     11.35530        -0.352173      0.619883      0.108537
O       7.57706      1.94901      2.68215        -0.409528     -0.212462      0.323977
O       7.77987      1.88581     15.68582        -1.658678      0.174882      0.322918
O       7.47034     13.43983      2.59969         1.347668     -0.003945      0.262161
O       7.64299     13.48260     15.84156        -0.201716     -0.192844      0.038933
O       7.62561      1.80702      7.16692        -0.457062      0.858518     -0.338584
O       7.64037     13.45020      6.98777        -0.005206     -0.051110      0.702193
O       7.60860      1.96874     11.41083        -0.255041     -0.570812      0.080371
O       7.55545     13.35331     11.43786         1.266049     -0.180646      0.091234
O       7.57192      5.82145      2.65058         0.407139     -0.303773      0.051927
O       7.73802      5.80499     15.78329         0.024330     -0.648689     -0.179030
O       7.57772      5.57244      7.11353         0.148772      0.548336     -0.101712
O       7.59066      5.66441     11.29498         0.089750      0.037647      0.591112
O       7.67875      9.58121      2.75040        -0.663501     -0.354324      0.087369
O       7.66447      9.66026     15.74732        -0.174790     -0.448760     -0.257815
O       7.68929      9.55312      6.95469        -0.547712      0.155454      0.387869
O       7.56244      9.55451     11.40978         0.597137      0.176341      0.081948
O      11.39841      1.76467      2.82121         0.678262      0.980058     -0.273218
O      11.40065      1.79549     15.92351         0.742372      0.816343     -0.634974
O      11.37048     13.56552      2.63106         1.153018     -0.670768      0.568342
O      11.55255     13.39375     15.69894        -0.047239     -0.515671      0.524636
O      11.47753      1.79406      6.97087         0.923356      0.324988      0.249215
O      11.44335     13.38609      7.07894         0.087722      0.108627     -0.022732
O      11.39968      1.79956     11.46694         0.380634      0.398298     -0.226379
O      11.47065     13.47271     11.50858        -0.425923     -0.573241     -0.193593
O      11.44524      5.64453      2.67320         0.290008      0.334762      0.421631
O      11.49235      5.84437     15.69888        -1.220839      0.062826     -0.205356
O      11.41303      5.84259      7.11282         1.009348     -0.503316     -0.141847
O      11.44480      5.77491     11.19948        -0.366420     -0.095581      0.977803
O      11.45552      9.52342      2.71025         0.925293      0.080630      0.238610
O      11.53893      9.59320     15.74467        -0.085096      0.100383      0.399198
O      11.40356      9.47148      7.03892         1.215839     -0.040285     -0.228108
O      11.48286      9.41727     11.29675        -0.440460      0.239583      0.183103
O       1.94548      3.83564      2.71049        -0.599449     -0.084417     -0.037803
O       1.95584      3.87012     15.69789        -0.832838     -0.304640      0.450518
O       1.73963     15.32685      2.60141        -0.024859     -0.093718      0.506478
O       1.95237      0.01354     15.66382        -0.220054      0.021150      0.521896
O      13.22844      3.83094      2.62029         0.356046     -0.680522      0.107564
O      13.24191      3.84726     15.58245         0.415465     -1.217360      0.385742
O      13.43994     15.33779      2.73503        -0.007507      0.258324      0.187839
O      13.33896      0.04245     15.74155         0.565965     -0.899937      0.032002
O       1.83763      3.72196      6.74277         0.188309      0.259534      0.909377
O       1.95254     15.24524      6.88206        -0.445892      0.567723      0.518956
O      13.39559      3.77639      7.03162        -0.026828      0.040407      0.084039
O      13.46946     15.35488      7.05352        -0.316156     -0.304324      0.194985
O       1.81700      3.81193     11.52351         0.242407     -0.158974     -0.291198
O       1.77363      0.02268     11.37356        -0.170454     -0.726518      0.596307
O      13.36805      3.86235     11.28564        -0.583233     -1.252551      0.910865
O      13.32461     15.30790     11.35831         0.253859      0.370364      0.200921
O       1.88756      7.69651      2.78237        -0.203407     -1.052060     -0.082078
O       1.91821      7.71878     15.86061        -0.260600     -0.468757     -0.379822
O      13.34585      7.58294      2.66062        -0.104224      0.036147      0.323442
O      13.43075      7.60867     15.68299         0.207322      1.538829      0.734934
O       1.86691      7.62020      6.95889         0.512514     -0.706196      0.349451
O      13.49313      7.64774      7.12010        -0.702394     -0.192573     -0.029592
O       2.04673      7.69436     11.34311        -0.278083     -0.717446      0.153877
O      13.41772      7.62022     11.29311        -0.209890      0.645358      0.314600
O       1.83189     11.44584      2.82227         0.139798     -0.470862     -0.552672
O       1.90583     11.56220     15.79626        -0.355647     -0.949928      0.124660
O      13.17763     11.45685      2.69137         0.669019      0.155679      0.363476
O      13.55540     11.45283     15.69880        -0.407934      0.710616      0.823386
O       1.91329     11.52351      6.98477         0.100029     -0.276001      0.275525
O      13.37197     11.46455      6.84142        -0.202729     -0.595903      0.167328
O       1.75592     11.54049     11.51603         0.448604     -0.039432     -0.366900
O      13.39535     11.42851     11.45521        -0.358961      0.393751      0.126710
O       5.63433      3.80139      2.64694         0.273859      0.605319      0.120747
O       5.78314      3.89158     15.86610         0.320154     -1.056025     -0.365645
O       5.63003     15.34251      2.68623        -0.032686     -0.002057     -0.166013
O       5.59067      0.03207     15.69860         0.349803     -0.027288     -0.193278
O       5.65455      3.79103      6.89726         0.221676     -0.244689      0.641032
O       5.81897      0.01579      7.02347        -0.890975     -0.628946      0.207519
O       5.66237      3.75236     11.44210        -0.191783      0.676857     -0.242321
O       5.73244     15.30284     11.54840         0.020498     -0.434887      0.152898
O       5.52786      7.66439      2.67262         0.755867     -0.218047      0.106928
O       5.84241      7.64042     15.59693        -0.481857      0.877027      0.920380
O       5.74545      7.65146      7.06934        -0.279792     -0.978428      0.005278
O       5.57493      7.64132     11.43535         0.662630     -0.113475     -0.559730
O       5.70652     11.44272      2.40795        -0.324806      1.003164      1.088832
O       5.61225     11.46908     15.84256         0.636437      0.040662      0.035306
O       5.79453     11.48765      7.04131        -0.528194      0.415289      0.084797
O       5.74445     11.44498     11.32764        -0.329889      0.772949      0.605504
O       9.44822      3.87709      2.76882         0.286523     -0.246224      0.337055
O       9.74317      3.81566     15.48754        -0.451558      0.371063      0.287586
O       9.44905     15.33373      2.66692        -0.749950      0.684853      0.078474
O       9.59966     15.30032     15.72950        -0.116470      0.179443      0.290602
O       9.64302      3.70213      7.15098        -0.508486      1.128896      0.020594
O       9.61244     15.35186      7.11501        -0.390016     -1.193185      0.362316
O       9.61032      3.74627     11.37548        -0.431472      1.126566      0.237977
O       9.48925     15.22860     11.35830        -0.437092      0.426767      0.140781
O       9.60281      7.61609      2.68971        -0.203099      0.422323      0.177615
O       9.55038      7.65605     15.79642         0.088158      0.474386     -0.326042
O       9.42266      7.64747      6.90170        -0.016183     -0.419446      0.704078
O       9.42880      7.70916     11.29164        -0.173954     -1.370760      0.473905
O       9.50742     11.55438      2.69990         0.281421     -0.087386      0.102957
O       9.50625     11.45814     15.75027         0.607273      0.314402      0.294784
O       9.53343     11.48502      6.99419         0.035219     -0.148652     -0.178838
O       9.74686     11.45956     11.43672        -1.102048      0.439217      0.007781
