  # total energy = -7881.73172204 
CRSYTAL
PRIMVEC
    15.3600000000000000    0.0000000000000000    0.0000000000000000
     0.0000000000000000   15.3600000000000000    0.0000000000000000
     0.0000000000000000    0.0000000000000000    17.440000000000000
PRESSURE
0.017355 0.019861 -1.76039 -0.220741 -0.370992 -0.011503
PRIMCOORD
320 1
Pb       3.87008      3.79775      4.29732        -0.380457      0.413746     -0.400664
Pb       3.76045      3.87045     17.42357        -0.444043     -0.059136     -0.523724
Pb       3.85455     15.33283      4.30226        -0.059642     -0.333899     -0.357300
Pb       3.88114     15.28439      0.01326        -0.229085      0.166804     -1.105361
Pb      15.35624      3.86512      4.31496        -0.255636     -0.241744     -0.811502
Pb      15.24503      3.75075     17.35226         0.186890     -0.113366     -0.409474
Pb      15.33553      0.01707      4.40380         0.068134     -0.305955     -1.039082
Pb       0.15726      0.04549     17.37427        -0.373640     -0.399038      0.042028
Pb       3.93793      3.83816      8.66330        -0.639794      0.185739      0.007584
Pb       3.82049     15.32394      8.60707        -0.069288      0.034156     -0.302721
Pb       0.14698      3.78891      8.73405         0.044984     -0.016057     -0.506331
Pb       0.05467     15.28697      8.67479        -0.028521      0.087832     -0.622848
Pb       3.89368      3.90672     13.11785        -0.515720     -0.428292     -0.617942
Pb       3.97530      0.09275     13.15338        -0.189360     -0.536168     -0.209125
Pb      15.34045      3.87398     12.97577         0.274888     -0.198691      0.115695
Pb      15.33020     15.32474     13.08881        -0.051474      0.092846     -0.399015
Pb       3.78210      7.64666      4.36767         0.235912      0.156711     -0.403573
Pb       3.89562      7.72528     17.40731        -0.093087     -0.209923     -0.568094
Pb      15.20867      7.60708      4.33340         0.187102     -0.015681     -0.747830
Pb       0.13023      7.57245      0.02292        -0.319214      0.217593     -0.495652
Pb       3.73923      7.69902      8.61800        -0.072119     -0.296858     -0.140236
Pb      15.32342      7.73727      8.64137         0.421721     -0.398952     -0.269600
Pb       3.88343      7.73504     13.06120         0.038873      0.294374     -0.483509
Pb      15.25890      7.70094     12.97528         0.476922     -0.197301      0.280139
Pb       3.92922     11.44690      4.41658        -0.227877     -0.157722     -0.468278
Pb       3.68076     11.55684      0.02046        -0.081972     -0.164868     -0.575874
Pb      15.27681     11.36884      4.41309        -0.021132      0.263126     -0.783617
Pb       0.05303     11.44141      0.05442        -0.239807      0.120252     -0.056329
Pb       3.85473     11.44959      8.64522        -0.174354     -0.107478     -0.279630
Pb       0.03942     11.63169      8.66544        -0.007582      0.023598     -0.222228
Pb       3.75864     11.54958     13.06766         0.425870     -0.369974     -0.313012
Pb      15.23568     11.48197     12.95650        -0.121404     -0.022298      0.293589
Pb       7.58383      3.92549      4.24126         0.340236     -0.397902      0.334113
Pb       7.62447      3.78975      0.04647         0.234300     -0.201204     -0.748810
Pb       7.56985     15.26595      4.37539        -0.071884      0.006029     -1.088131
Pb       7.82525     15.27921      0.01530        -0.501359      0.400187     -0.420469
Pb       7.67267      3.86201      8.63653         0.154763     -0.032047     -0.038873
Pb       7.68539      0.11344      8.72773        -0.291972     -0.183195     -0.056809
Pb       7.60190      3.71951     12.99176         0.204740      0.140051     -0.690056
Pb       7.65617     15.21612     13.12290         0.162253     -0.071368     -0.400922
Pb       7.68570      7.77009      4.39907        -0.227495     -0.769884     -0.170016
Pb       7.64835      7.64889     17.39392         0.274867      0.028338     -1.010045
Pb       7.73434      7.53630      8.74845        -0.269454      0.250697     -0.460197
Pb       7.78508      7.69447     13.13844        -0.704909     -0.120918     -0.686871
Pb       7.63666     11.48079      4.34788         0.016770      0.648622     -0.390347
Pb       7.67123     11.42675     17.35502        -0.128903     -0.098539     -0.248459
Pb       7.69296     11.54457      8.76731         0.019933     -0.237727     -0.669993
Pb       7.55128     11.48259     13.04001         0.295147      0.190543     -0.442299
Pb      11.53922      3.92393      4.33888        -0.259533      0.120269     -0.208283
Pb      11.42179      3.81054     17.40797        -0.071269      0.061134     -0.207800
Pb      11.56241      0.05165      4.42506         0.020839     -0.372926     -0.793973
Pb      11.58318      0.04969      0.00234        -0.062572     -0.359157      0.002784
Pb      11.61651      3.66922      8.68511        -0.480113      0.543615     -0.486557
Pb      11.52540      0.08938      8.71869         0.055385     -0.469929     -0.138013
Pb      11.46741      3.84517     12.92471        -0.208564      0.292715     -0.000952
Pb      11.48334     15.34620     13.13164        -0.320507     -0.291645     -0.827470
Pb      11.52557      7.63831      4.43880        -0.003509     -0.328374     -0.739557
Pb      11.46455      7.73673     17.34414        -0.146195     -0.143552      0.078126
Pb      11.52393      7.65725      8.68977        -0.421954     -0.258048     -0.863894
Pb      11.58942      7.62525     13.13502        -0.239771     -0.138237     -0.621229
Pb      11.43979     11.56558      4.32349         0.399529     -0.162065     -0.649670
Pb      11.55151     11.52304     17.41415         0.290917     -0.188784      0.041919
Pb      11.46453     11.52468      8.68648        -0.130120     -0.044960     -0.372089
Pb      11.49197     11.57952     13.12118        -0.136253      0.104683     -0.614315
Ti       1.82446      1.90662      2.34686        -0.464584     -0.570413      1.223996
Ti       1.87078      1.87743     15.31745        -0.261305      0.470912     -1.426344
Ti       1.90433     13.38793      2.44087        -0.776133      0.164976     -0.725879
Ti       1.81758     13.38904     15.20654         1.044204      0.014751      1.858347
Ti      13.31864      1.85311      2.28088         0.847624      0.751927      0.312245
Ti      13.21430      1.83734     15.38363         2.715364      0.865045      2.224505
Ti      13.43931     13.37660      2.32512         0.432401     -0.575897     -0.365160
Ti      13.48220     13.41362     15.43694         0.013669     -0.808241     -0.981180
Ti       1.85092      1.86167      6.49376         0.067033      0.036626     -0.532690
Ti       1.93554     13.35882      6.51772         0.357436      0.460124      0.599235
Ti      13.41155      1.88110      6.57456         0.465350      0.325735      2.951266
Ti      13.30765     13.41289      6.65220         1.234082      0.128873     -0.712104
Ti       1.84186      1.88575     11.06776         0.753684      0.420652      0.458681
Ti       1.86464     13.43409     11.09488         0.213436      0.041056     -0.174726
Ti      13.35460      1.90471     10.98187         0.334104     -0.334733     -0.310661
Ti      13.35505     13.42478     10.95436         0.080614     -0.149372      0.077686
Ti       1.86237      5.73263      2.32831         0.395299     -0.056145     -0.843832
Ti       1.82463      5.69633     15.38334         0.097929      0.204875      0.492963
Ti      13.35686      5.64802      2.10972         0.526587      0.648139      2.830830
Ti      13.34763      5.77390     15.35038         0.628964     -0.562948      0.259537
Ti       1.88130      5.61668      6.50991         0.577421      1.055403      1.066950
Ti      13.44773      5.74122      6.71049        -1.005122     -0.678619     -0.125108
Ti       1.89076      5.76836     11.03912         0.405391     -0.736982     -1.651797
Ti      13.39547      5.76353     10.88828        -0.114220     -0.212971      1.514414
Ti       1.88403      9.59660      2.36144         0.262334     -0.245289     -0.192542
Ti       1.91374      9.56248     15.42527         0.113999     -0.264450     -1.186356
Ti      13.34643      9.46820      2.34193         0.655469      0.713770      0.015076
Ti      13.48921      9.56593     15.38113         0.614171      0.449174      0.251168
Ti       1.78126      9.59946      6.67502         1.996478     -0.742607      0.038997
Ti      13.35838      9.60047      6.61537         0.090117     -0.410385     -0.682114
Ti       1.81908      9.61129     11.03183         1.102468     -0.958712     -0.651929
Ti      13.29341      9.53695     10.93817         0.836043      0.758532      0.045354
Ti       5.61911      1.86933      2.25605         1.213930     -0.244825      0.769054
Ti       5.68105      1.98822     15.35401         0.474545     -1.775849      0.524436
Ti       5.65328     13.39131      2.09585         0.996983      0.056504      2.534655
Ti       5.71731     13.37484     15.45340        -0.384046      0.986737     -1.693575
Ti       5.68747      1.89947      6.55625         0.254029     -0.308291      0.887554
Ti       5.78181     13.43659      6.69405        -0.229350     -0.648812     -0.805646
Ti       5.66258      1.82020     11.01414         0.786722      0.533529      0.535831
Ti       5.73813     13.39474     10.94925        -0.043504     -0.062148      1.170625
Ti       5.77140      5.78745      2.29014        -0.620491      0.808629      0.662014
Ti       5.73880      5.65765     15.38532         0.422758      1.586859     -0.340431
Ti       5.74169      5.75607      6.61495        -0.198937     -0.284116      0.137704
Ti       5.71472      5.68063     10.98847         0.366822      0.873126     -1.192076
Ti       5.78764      9.54008      2.26642        -1.827631      0.182162     -0.322470
Ti       5.72184      9.62455     15.33145         0.182680     -0.422555     -0.193240
Ti       5.80018      9.55374      6.74417        -1.022816      0.220567     -0.283576
Ti       5.69560      9.58887     10.97122         0.447881     -0.485480      0.770203
Ti       9.52682      1.90853      2.41940        -0.346808      0.378564     -0.039488
Ti       9.57072      1.82741     15.26613        -1.503554      0.760214      0.268368
Ti       9.60034     13.49487      2.21948        -0.618443     -0.364370      0.549136
Ti       9.59639     13.34553     15.46174        -0.421247      1.037599     -0.880307
Ti       9.53230      1.80732      6.60668        -0.200828      1.500952      0.476919
Ti       9.58879     13.44905      6.61646        -0.886286     -1.120414      1.508017
Ti       9.57163      1.85122     10.99345        -0.885307      0.534267      1.395642
Ti       9.60046     13.40955     10.94208         0.011599      0.006300      1.489662
Ti       9.57497      5.75966      2.24788         0.337776      0.026558     -0.212702
Ti       9.57329      5.59614     15.24228        -0.274302      1.114494      1.264264
Ti       9.55614      5.68271      6.64626         0.804960      0.562205      0.432098
Ti       9.51384      5.75280     10.98284        -0.213574     -1.312527     -0.609840
Ti       9.53088      9.61000      2.31723         1.642880     -0.115053     -0.446733
Ti       9.66741      9.55504     15.30907        -1.129813     -0.301682      1.824289
Ti       9.59444      9.55079      6.56521        -0.573538     -0.031460      2.496991
Ti       9.60150      9.58382     10.95593        -1.505651      0.429397     -0.306632
O       1.76767      1.96399      0.62954         0.463034     -0.097479     -2.149791
O       1.83353      1.93279     13.46727        -0.049988     -0.232604      1.660541
O       1.79974     13.31377      0.63882         0.367785      0.095078      0.312368
O       1.71512     13.41485     13.45356         0.351917     -0.225126     -0.070523
O      13.24597      1.90975      0.50473        -0.083981     -0.412967     -0.190272
O      13.20532      1.77384     13.71462         0.202094     -0.161735     -2.881869
O      13.55917     13.38256      0.52792        -0.517285      0.158391      0.686884
O      13.53691     13.31874     13.60127        -0.559151      0.440052      0.821638
O       1.76709      1.85491      4.61699         0.037750     -0.031395      2.504603
O       1.99488     13.37735      4.75658        -0.304216      0.163315      0.294984
O      13.41990      1.93952      4.87944        -0.052445     -0.209987     -2.134453
O      13.25322     13.41713      4.85727         0.120937      0.316721      0.480960
O       1.87370      1.98493      9.29949        -0.120111     -0.390899     -0.149201
O       1.68269     13.39590      9.30304         0.565246     -0.035937      0.392808
O      13.27660      1.90491      9.18983         0.208112     -0.209524      0.908391
O      13.38225     13.36518      9.14613         0.061656     -0.088938      0.568420
O       1.85824      5.78731      0.46170         0.322879     -0.310116      1.375293
O       1.62244      5.66026     13.64209         0.596925      0.071431     -0.798815
O      13.39725      5.60576      0.42512        -0.245762      0.409603     -2.160481
O      13.37346      5.90640     13.57520         0.109208     -0.348574      0.157856
O       1.86440      5.67614      4.74926        -0.164082     -0.295380     -0.073342
O      13.25538      5.71854      4.93936         0.686672     -0.055774     -0.263704
O       1.89363      5.64073      9.19892         0.028153      0.104491      1.253807
O      13.36853      5.78379      9.17097         0.135155     -0.030186     -1.060515
O       1.90527      9.67405      0.51688         0.010600     -0.611283      1.155617
O       1.92363      9.59009     13.63156         0.103967     -0.186196      0.255663
O      13.55580      9.48655      0.61105        -0.393858      0.285319     -1.107551
O      13.42967      9.53711     13.58766        -0.179711      0.082226      0.477233
O       1.89877      9.72540      4.92521        -0.188955     -0.664043     -0.066078
O      13.32631      9.48521      4.77468         0.189393     -0.030933      1.341490
O       1.89326      9.53714      9.20897        -0.552863      0.205657      0.895788
O      13.34065      9.47849      9.14595        -0.012464      0.191212      0.690005
O       5.72769      1.90428      0.51359        -0.387427      0.104379     -0.627553
O       5.66104      2.02333     13.58067         0.026553     -0.239127     -0.202869
O       5.70437     13.50766      0.36278        -0.350875      0.078683     -0.641040
O       5.81191     13.38349     13.56006         0.036267     -0.215966      1.530735
O       5.71454      1.88562      4.78284        -0.248390      0.035315      0.488972
O       5.80813     13.51758      4.85959        -0.109734     -0.446374      0.999653
O       5.66414      1.67272      9.25694        -0.074504      0.314101     -0.088402
O       5.65771     13.42376      9.18491         0.298812      0.098770      0.215008
O       5.82837      5.86463      0.50163        -0.107202     -0.168360     -0.049547
O       5.74581      5.61855     13.60228        -0.015018      0.024013      0.297122
O       5.80461      5.73643      4.82477        -0.384818      0.032648      0.663115
O       5.71097      5.77190      9.13536         0.040335     -0.688916      1.417996
O       5.77865      9.44355      0.47931         0.121223     -0.038640      0.430046
O       5.68702      9.61086     13.52605         0.026233      0.177598      0.494544
O       5.68000      9.55592      4.95414         0.176978      0.205221      0.030309
O       5.66363      9.64222      9.22231         0.118567     -0.037795     -0.744648
O       9.71215      1.98539      0.65914        -0.333098     -0.209789     -0.607778
O       9.60622      1.70802     13.50750         0.137621      0.342639      0.267124
O       9.61843     13.44323      0.41345        -0.079875      0.252750      0.492307
O       9.48031     13.55067     13.67477         0.336181     -0.560577      0.597344
O       9.36674      1.89212      4.86664         0.705305     -0.558375      0.158044
O       9.54536     13.52617      4.89253        -0.020767      0.204292     -0.849291
O       9.54622      1.80702      9.25226         0.313450      0.211469     -1.232703
O       9.64784     13.22358      9.22466         0.001867     -0.197959     -1.559922
O       9.67673      5.66541      0.41559        -0.517937      0.196626      1.986704
O       9.62174      5.60753     13.49679        -0.286386      0.658921     -0.790510
O       9.57676      5.78859      4.89487         0.079941     -0.185873     -0.813609
O       9.33072      5.73772      9.13256         0.764000      0.193932      1.349522
O       9.66658      9.55088      0.53132        -0.584135      0.379668      0.565868
O       9.61723      9.48784     13.59863         0.117274      0.170948     -1.070142
O       9.57689      9.61956      4.84570        -0.027394     -0.314012     -1.654341
O       9.51989      9.57596      9.08221         0.515370      0.249094      2.170617
O       3.72066      1.78293      2.68749         0.953966      0.790402      0.007457
O       3.79580      1.98982     15.70556        -0.038094      0.093175      0.477429
O       3.78690     13.44486      2.68909         0.352644      0.039843     -0.197134
O       3.73525     13.41445     15.74177        -0.309524     -0.401720      0.056879
O      15.24832      1.99648      2.66371        -0.719642     -0.459759      0.243086
O      15.32066      1.84288     15.77204         0.179278      0.214594     -0.076179
O      15.32128     13.25332      2.83232        -0.672887      0.421374      0.098350
O       0.03280     13.57079     15.73281         0.043065     -0.450127      0.016908
O       3.75256      1.80950      6.94670         0.546346      0.236147     -0.187864
O       3.84101     13.38470      7.00825        -0.736280      0.525121      0.112172
O      15.31341      1.87542      7.06021         0.529145     -0.188693     -0.368735
O       0.04193     13.36725      6.99674        -0.635279      0.001483      0.004537
O       3.78208      1.91361     11.43380         0.100960     -0.543694      0.025370
O       3.88280     13.41265     11.47034        -1.058080     -0.042040     -0.439881
O      15.31388      1.86461     11.41400        -1.353080     -0.023414     -0.100361
O      15.25958     13.45265     11.37982        -0.465043     -0.467310     -0.038553
O       3.79839      5.86800      2.70110         0.055586     -0.370661     -0.224819
O       3.86912      5.74589     15.73134        -0.107902     -0.298444      0.243922
O      15.28380      5.69160      2.60126        -0.139921     -0.318517      0.272901
O      15.29290      5.71561     15.81095        -0.420688     -0.130261      0.076256
O       3.80259      5.59387      6.90639        -0.089481     -0.108632      0.063381
O      15.35039      5.60632      6.97348        -0.088384      0.201226      0.107243
O       3.85268      5.52951     11.37860        -0.656704      0.898872      0.274670
O      15.33934      5.83680     11.25101        -0.956112     -0.335203      0.417874
O       3.85363      9.51777      2.69527        -0.817356     -0.403901      0.113362
O       3.83149      9.62367     15.78366        -0.138198     -0.335363      0.289871
O      15.31298      9.55687      2.79093         0.437154      0.138523      0.136962
O       0.08837      9.58998     15.78951        -1.692111     -0.328541      0.085343
O       3.74463      9.55063      7.16481         0.207550     -0.167045     -0.215628
O      15.28044      9.59496      7.04657         0.059424     -0.146110      0.038909
O       3.82287      9.62457     11.45890        -0.393363      0.042982     -0.034282
O      15.30561      9.56005     11.40618        -0.429380     -0.141093     -0.435582
O       7.52249      1.95856      2.70392        -0.070689      0.046600     -0.266258
O       7.58380      1.91902     15.74889         1.058016     -0.156017      0.115601
O       7.64435     13.45182      2.60311        -0.783335     -0.297089     -0.125630
O       7.58199     13.40017     15.86892         0.857559      0.187025      0.055232
O       7.64587      1.93321      7.09699        -0.105973     -0.979077     -0.272420
O       7.65455     13.34691      7.11028         0.209056      0.272765     -0.133517
O       7.69056      1.86651     11.42152        -0.739175      0.002762     -0.070243
O       7.81271     13.26660     11.32640        -2.550867      0.683247      0.202090
O       7.65032      5.82046      2.80034         0.465986     -0.353756     -0.894050
O       7.74221      5.66792     15.80228        -0.836826      0.427481     -0.060949
O       7.66792      5.68777      7.00310        -1.173996     -0.161026      0.138100
O       7.57683      5.64814     11.38503         0.314093      0.088370      0.208275
O       7.59132      9.61455      2.74819         0.992456      0.438653      0.012359
O       7.63962      9.67530     15.72137         0.700737     -0.026492      0.055247
O       7.62552      9.56159      6.96924         0.048038     -0.004861      0.108331
O       7.69445      9.58797     11.35426        -0.021457     -0.001543      0.193232
O      11.44965      1.89549      2.85941        -0.151422     -0.335812     -0.024638
O      11.41982      1.89604     15.78062        -0.581381     -0.584216      0.290919
O      11.47456     13.46370      2.64431        -0.694710      0.334292      0.101245
O      11.49482     13.27098     15.68103         0.392529      0.775081      0.197793
O      11.53748      1.73532      7.05528        -1.483090      0.576295     -0.422538
O      11.48338     13.38955      7.05634        -0.610695     -0.187338      0.044889
O      11.45952      2.06270     11.46684         0.358992     -1.330205     -0.440425
O      11.41839     13.31548     11.42983         1.616809      0.308911      0.355909
O      11.49061      5.71666      2.69459        -1.009050      0.134622     -0.177583
O      11.44675      5.85503     15.71240         1.047687     -0.285459     -0.112495
O      11.50032      5.78848      6.95683        -0.267018     -0.149832      0.831467
O      11.48921      5.77364     11.27713        -0.264701      0.127275      0.133615
O      11.49349      9.50638      2.65466        -1.464667      0.147229      0.291328
O      11.56386      9.69297     15.84468        -0.087222     -0.398056     -0.490483
O      11.52156      9.50493      7.04776        -0.586914      0.100488     -0.200080
O      11.45723      9.42782     11.41533        -0.297164      0.364730     -0.306026
O       1.90440      3.78273      2.73051         0.230199      1.228545      0.011555
O       1.96229      3.80577     15.75592        -0.466160     -0.192560      0.401646
O       1.79652     15.30498      2.64666        -0.340122     -0.199223      0.422728
O       1.95804      0.00843     15.66017        -0.055388     -0.402428      0.245951
O      13.27911      3.78847      2.55075         0.073752      0.176055      0.532477
O      13.40729      3.75858     15.70477        -0.421309      0.744182     -0.080672
O      13.34567     15.33166      2.69280         0.271226     -0.070139      0.269545
O      13.43643     15.26184     15.86919        -0.880338      0.886707     -0.085627
O       1.88045      3.71697      6.95960        -0.124773      0.002173     -0.061767
O       1.86846     15.33521      6.98694        -0.161253     -0.195625     -0.088180
O      13.36140      3.73806      7.14109        -0.035402      0.548159     -0.428899
O      13.38755     15.31613      7.02043         0.356786     -0.421211     -0.085842
O       1.80384      3.83364     11.47726        -0.192260     -0.037990     -0.130498
O       1.79057     15.27463     11.45652         0.457130      0.482408     -0.272868
O      13.30338      3.79266     11.35359         0.935459      0.949464     -0.174233
O      13.23595     15.33362     11.33011         0.157778     -0.039920      0.125297
O       1.78450      7.57915      2.82983         0.097949      1.088282     -0.380692
O       1.87555      7.56720     15.71347         0.357494      1.108949      0.523525
O      13.40332      7.58640      2.61086         0.007051     -0.719864      0.515346
O      13.48327      7.72727     15.75673        -0.410511     -0.776652      0.078413
O       1.92112      7.55674      6.95545        -0.576640      0.488705      0.068664
O      13.40364      7.62578      7.05005         0.511589      0.414812      0.069494
O       1.97744      7.63710     11.42003        -0.033903      0.304136      0.141597
O      13.35806      7.69851     11.41221         0.311989     -0.715829     -0.234859
O       1.92194     11.41367      2.84602         0.037541      0.097147     -0.409528
O       1.84404     11.47048     15.84914         0.211632      1.192501     -0.584914
O      13.22297     11.44648      2.68066         0.571789      0.796685      0.256985
O      13.54920     11.53102     15.82322        -0.091272     -0.570208      0.062638
O       2.01882     11.49380      7.00361        -0.974968      0.218999      0.273045
O      13.40557     11.47290      6.83977        -0.158192      0.020984      0.636409
O       1.84758     11.42364     11.52151         0.055583      1.177918     -0.488322
O      13.30245     11.47368     11.34278         0.187261     -0.261684      0.005636
O       5.60822      3.94834      2.71063         0.196381     -1.232814     -0.497534
O       5.83765      3.82866     15.83833        -0.671735      0.168842      0.268207
O       5.58462     15.31904      2.56846         0.489804      0.010608      0.080692
O       5.53148     15.32078     15.58889         0.495991      0.595225      0.543185
O       5.73009      3.72412      7.16375        -0.044107      0.115813     -0.887674
O       5.69266     15.29668      7.02823         0.364487      1.089120      0.043835
O       5.72403      3.73139     11.40739         0.160733      0.195393     -0.189948
O       5.78638     15.31118     11.53223        -0.074094     -0.268192     -0.334961
O       5.77884      7.68084      2.80924        -0.040847      0.086892     -0.358578
O       5.77950      7.73243     15.59919         0.026165     -0.930545      0.677430
O       5.64757      7.55922      7.06470         0.266713      0.922763     -0.218659
O       5.73749      7.68063     11.30978        -0.334354     -0.634276      0.492553
O       5.50953     11.52429      2.52903         1.113908     -0.290978      0.132224
O       5.66721     11.51873     15.88203         0.203349     -0.308990     -0.188325
O       5.60253     11.48646      7.04911         0.686257     -0.145544      0.011942
O       5.79241     11.52516     11.40273        -0.150250     -0.012950     -0.164169
O       9.47399      3.81104      2.73488         0.332721      1.221135     -0.062053
O       9.63352      3.79952     15.61449         0.054333     -1.173396      0.392460
O       9.34407      0.04218      2.63657         0.922747     -1.108192      0.081304
O       9.50333      0.02311     15.73619         0.420941     -0.721676      0.626108
O       9.55670      3.79674      7.00151         0.430307     -1.201390      0.135774
O       9.54692     15.26717      7.22917         0.011337      0.708768     -0.893672
O       9.52799      3.82386     11.38187         0.226783      0.231646      0.063535
O       9.55415     15.33353     11.30663         0.562475     -0.649765      0.154930
O       9.53094      7.71366      2.61451        -0.196907     -0.693901      0.166901
O       9.56904      7.67900     15.68167         0.091009      0.429051      0.052985
O       9.44546      7.63725      6.97091         0.506867      0.435504      0.214182
O       9.38327      7.56246     11.43756         0.807478      1.210564     -0.347174
O       9.51757     11.57237      2.77401         0.214513     -0.343261     -0.355549
O       9.58050     11.52237     15.83414        -0.232631     -0.887526     -0.221882
O       9.46840     11.42813      6.86800         0.744162      1.058201      0.585675
O       9.58197     11.46889     11.58762         0.651802     -1.195923     -0.798635
