  # total energy = -7879.69212412 
CRSYTAL
PRIMVEC
    15.3600000000000000    0.0000000000000000    0.0000000000000000
     0.0000000000000000   15.3600000000000000    0.0000000000000000
     0.0000000000000000    0.0000000000000000    17.440000000000000
PRESSURE
3.15828 3.07004 3.64323 0.190099 0.080051 0.006473
PRIMCOORD
320 1
Pb       3.80199      3.86953      4.21841         0.010291     -0.267172      0.506454
Pb       3.76981      3.90087     17.33296         0.018904     -0.404358      0.129133
Pb       3.85360      0.01161      4.21738         0.265251     -0.261039      0.490349
Pb       3.96867      0.06689      0.02015        -0.712982     -0.292231      0.058977
Pb      15.21687      3.91510      4.27862         0.856507     -0.312330      0.447140
Pb      15.20767      3.76141     17.38772         0.298524      0.246372     -0.222132
Pb      15.23155     15.30756      4.31186         0.201215     -0.453745      0.624212
Pb       0.07073     15.34878     17.43951        -0.031222      0.187586     -0.231486
Pb       3.92892      3.88159      8.58223         0.022451     -0.722720      1.049350
Pb       3.77129     15.25711      8.77827         0.598624      0.235608     -0.597338
Pb       0.14231      3.67363      8.65463        -0.312208      0.358704      0.338697
Pb       0.16868     15.31485      8.58111        -0.748341     -0.233161      0.216892
Pb       3.83719      3.94373     13.08030        -0.482823     -0.472922      0.015097
Pb       3.98431     15.29574     13.24642        -0.619293      0.572751     -0.187932
Pb      15.23071      3.85837     12.96950         0.715738      0.319656      0.139021
Pb      15.34079      0.05069     12.99182        -0.239709     -0.648143      0.083863
Pb       3.80460      7.64395      4.28804        -0.188688      0.078328     -0.108244
Pb       3.83344      7.78161      0.00955         0.037993     -0.615389     -0.452942
Pb      15.20538      7.45180      4.30243         0.584784      0.769493      0.698631
Pb       0.15712      7.68885     17.40204        -0.478910     -0.704380     -0.272070
Pb       3.83795      7.53623      8.68103        -0.151287      1.333166      0.693391
Pb      15.31777      7.68217      8.67537         0.401151     -0.235520      0.275096
Pb       3.79915      7.81990     13.08557         0.167954     -0.245561     -0.156742
Pb      15.35905      7.73517     12.90566        -0.064821     -0.181435      0.061393
Pb       3.82939     11.41616      4.32820        -0.562845      0.414830      0.035530
Pb       3.74144     11.41211     17.42434         0.790142      0.431812      0.421547
Pb       0.00061     11.42861      4.26472        -0.410337      0.382010      0.900053
Pb       0.08257     11.38967      0.05607        -0.561248      0.568767      0.361378
Pb       3.70609     11.50749      8.68136         0.593406     -0.416006     -0.088404
Pb       0.09405     11.56730      8.59623        -0.812869      0.041698      0.432441
Pb       3.74121     11.58037     13.00441         0.170512     -0.336864      0.472268
Pb      15.14585     11.41944     13.04889         0.374778      0.492163     -0.395635
Pb       7.59259      3.93845      4.29810        -0.045631     -0.681959      0.270866
Pb       7.71257      3.84743     17.28883        -0.690738      0.134818      0.843198
Pb       7.58925      0.01593      4.17912        -0.137694      0.167401      0.457291
Pb       7.79988     15.28013     17.43381         0.022268     -0.109492      0.282981
Pb       7.70682      3.73218      8.70770         0.066661     -0.132913     -0.105359
Pb       7.67852      0.00423      8.65819        -0.271132      0.198546      0.342646
Pb       7.48955      3.67925     13.04751         0.684386     -0.511883      0.723090
Pb       7.69772     15.06497     13.14325        -0.152484      1.888352      0.623310
Pb       7.57409      7.75992      4.33889         0.736780     -0.292419      0.095919
Pb       7.79730      7.50348     17.37890        -0.622198      0.605085     -0.087609
Pb       7.59251      7.64549      8.68508         0.287689     -0.192334      0.235302
Pb       7.68688      7.61260     13.01543        -0.023073      0.297634      0.499910
Pb       7.66750     11.52314      4.25250         0.149647     -0.145195      0.599837
Pb       7.70800     11.45659     17.37029         0.054514      0.446577      0.363247
Pb       7.74576     11.39851      8.77400        -0.623693      0.419956     -0.119006
Pb       7.57985     11.49774     13.09403         0.281331     -0.501413     -0.136992
Pb      11.55148      3.89577      4.38395        -0.312837     -0.072975      0.112220
Pb      11.27239      3.79016     17.27793         1.950897      0.238200      1.563676
Pb      11.44163      0.14833      4.27276         0.304371     -0.648526      0.066257
Pb      11.71146      0.03224     17.29606        -0.882990      0.102314      1.425208
Pb      11.66321      3.72702      8.70905        -0.652371      0.352350      0.177775
Pb      11.49795     15.26819      8.61852         0.078966      0.110080      0.575623
Pb      11.40975      3.90958     12.92316         0.821053     -0.393903      0.225868
Pb      11.42779     15.29056     13.06332         0.601653      0.248995     -0.381940
Pb      11.52477      7.70608      4.35260        -0.894743     -0.363898      0.632833
Pb      11.45465      7.63628     17.34356         0.357246     -0.254941      0.248688
Pb      11.43561      7.58849      8.66783         0.222991     -0.445170      0.490938
Pb      11.62327      7.73502     12.90079        -0.249966     -0.382128      0.421098
Pb      11.39988     11.55609      4.39209         0.154620      0.154908      0.320162
Pb      11.65579     11.57144     17.41832        -0.614622     -0.021991      0.154330
Pb      11.35353     11.51720      8.75241         0.763354      0.653031      0.458496
Pb      11.37711     11.53442     13.01371         0.513819      0.014302      0.131209
Ti       1.90901      1.83531      2.35234        -0.494839      0.755741     -0.033973
Ti       1.93394      1.89480     15.40815         0.179723      0.153855      0.899750
Ti       1.90485     13.41295      2.33631        -0.513378      0.101991      1.185835
Ti       1.89943     13.36903     15.58005         0.214325      2.001697     -1.961048
Ti      13.47474      1.97497      2.30124        -1.096947     -0.785632      0.242051
Ti      13.40314      1.93666     15.29788         1.047962      1.228618     -0.652531
Ti      13.36804     13.42445      2.43484        -0.183502      0.974050     -0.559530
Ti      13.45468     13.41065     15.43859         0.206179      0.297435     -0.540574
Ti       2.03981      1.96537      6.70099        -0.180835     -1.045230     -0.859662
Ti       1.91706     13.43468      6.60858        -0.330176     -0.346353     -1.166511
Ti      13.44225      1.82522      6.72874         0.344577     -0.333934      1.536612
Ti      13.36768     13.35053      6.74577         0.693905     -0.317207      0.244575
Ti       1.92388      1.84660     11.17057         0.715913      1.049281     -0.595463
Ti       1.90708     13.42061     11.07541        -1.169709     -0.056088     -0.064756
Ti      13.47202      1.89944     11.04556        -0.989097     -0.492477      1.183789
Ti      13.40522     13.37916     11.00279        -0.079693      0.991441      0.796135
Ti       1.86662      5.71635      2.21259         0.500953      0.186421     -0.250050
Ti       1.93841      5.75620     15.36616        -0.608151     -0.269647     -0.272612
Ti      13.30209      5.85983      2.34860         0.693050     -2.544892     -1.994154
Ti      13.45881      5.78222     15.42645         0.140254     -0.491462      0.242777
Ti       1.98512      5.81765      6.77760        -1.656891     -0.248971     -0.126935
Ti      13.45649      5.69949      6.85511        -0.731096      0.435658     -0.569077
Ti       1.98203      5.77093     11.06919        -1.171909     -0.218942      0.288720
Ti      13.42857      5.72742     10.98851         0.130627      0.112335      0.552252
Ti       1.80919      9.50345      2.39834         0.235467      0.524915      1.200082
Ti       1.82729      9.64946     15.34062         1.108196     -1.410199     -0.601624
Ti      13.30202      9.63217      2.36495         0.479378      0.597523     -0.185955
Ti      13.38643      9.62038     15.50037        -0.398243     -0.900276     -0.371397
Ti       1.83535      9.58264      6.65290         1.255719     -0.394035     -0.027968
Ti      13.40957      9.55590      6.80968        -0.292128      0.902363      0.238643
Ti       1.88586      9.60659     10.95004         0.273185      0.621943      1.699742
Ti      13.36924      9.61959     10.86424         0.527884      0.393784      2.298506
Ti       5.72933      1.94742      2.19600         0.545292     -0.427450      1.905434
Ti       5.84912      1.81835     15.55048        -1.134452      1.190286     -1.924779
Ti       5.74428     13.29484      2.39140        -0.153780      1.413737     -0.759597
Ti       5.72734     13.40352     15.53971         0.716764      0.120190     -0.218894
Ti       5.76536      1.84833      6.67712         0.504121     -0.385948     -0.575939
Ti       5.73954     13.31198      6.72543        -0.450267      1.193676     -0.500857
Ti       5.67780      1.88706     11.05771         1.179835      0.037294      0.648389
Ti       5.67090     13.51466     11.10442         0.094965     -0.884241     -1.183621
Ti       5.70246      5.74670      2.26426         0.126079      0.058438      0.513856
Ti       5.68002      5.73314     15.44406         0.295168      0.384795      1.139994
Ti       5.74448      5.78170      6.67787         0.822297     -0.891676     -0.331694
Ti       5.77458      5.79710     11.06903        -0.678698     -0.309502      0.808896
Ti       5.69063      9.55550      2.29664         0.375037      0.415374      0.109295
Ti       5.70875      9.61894     15.51199         0.354106     -0.840705     -0.362909
Ti       5.71794      9.56308      6.70866        -0.439906      0.219105      1.790961
Ti       5.80149      9.59972     11.09054        -1.358756     -0.174928     -0.325677
Ti       9.60061      1.90225      2.31916         0.261927      0.096089      0.216441
Ti       9.57446      1.93591     15.38155        -0.164418     -0.870103     -0.037971
Ti       9.57559     13.38293      2.35629         0.711516      0.598832      1.103579
Ti       9.65822     13.45350     15.50733        -0.864498     -0.494768      0.444312
Ti       9.59826      1.96122      6.61226        -0.070657     -0.196938      0.982556
Ti       9.50474     13.50061      6.72411         0.585906     -0.854455     -0.809778
Ti       9.56994      1.93082     11.12619        -0.712602     -1.331708     -0.557485
Ti       9.47889     13.50445     11.10172         2.632419     -0.548031     -0.583394
Ti       9.51873      5.68766      2.41609         0.666380      1.213669      0.068588
Ti       9.61713      5.75274     15.31017        -0.012882     -0.010220      1.477460
Ti       9.51622      5.69130      6.74933         1.677811      0.316418     -0.271421
Ti       9.49621      5.66688     11.06017         1.920249      0.739492     -2.279523
Ti       9.53760      9.54295      2.31629        -0.231289     -0.155701      1.673071
Ti       9.57769      9.57756     15.36365        -0.078863      1.075211      0.612517
Ti       9.61388      9.50489      6.87231        -0.044529      0.785622      0.508201
Ti       9.59013      9.55066     11.08744        -0.077746      0.246028      1.077563
O       1.64463      1.97622      0.64163         0.559693     -0.262162     -0.541491
O       2.11938      2.00472     13.71531        -0.461965     -0.636554     -1.867674
O       1.73965     13.41551      0.60907         0.458725     -0.356677     -1.744183
O       1.97941     13.39176     13.78480         0.167460     -0.143521      0.679009
O      13.44548      2.02729      0.55592         0.289165     -0.187888     -0.161115
O      13.60702      1.98606     13.51741        -0.515172     -0.160345      1.016978
O      13.25487     13.46868      0.67695         0.103335     -0.322460     -1.288234
O      13.36221     13.26555     13.71819         0.280636      0.614478     -0.793340
O       2.14253      2.00488      4.97437        -0.197557     -0.289637     -0.914957
O       1.84706     13.44977      4.84155         0.167063     -0.004909      0.289092
O      13.41072      1.83926      5.03457        -0.149165      0.348803     -1.572217
O      13.50588     13.40977      5.01712        -0.491589     -0.178257     -1.721570
O       1.93372      1.86693      9.40893        -0.068989      0.039013     -1.014630
O       1.75398     13.38425      9.31203         0.988594      0.199489     -0.918909
O      13.49907      1.86083      9.32983         0.042056     -0.006422     -1.816509
O      13.42798     13.53682      9.30644         0.088186     -0.133457     -1.121966
O       1.89503      5.75271      0.44499        -0.171158      0.030681      0.326773
O       1.87325      5.77795     13.58211         0.453399      0.308150     -0.069726
O      13.35276      5.66132      0.59877        -0.009440      0.533389      0.218489
O      13.41011      5.77497     13.69287         0.042021     -0.041805     -1.426210
O       1.88412      5.77458      5.05339         0.219417      0.230099     -0.881881
O      13.44697      5.79886      5.06559         0.557255     -0.231489     -1.232716
O       2.01626      5.88040      9.34013        -0.022493     -0.340572     -1.839711
O      13.29516      5.70438      9.29475         0.414409      0.290599     -1.944259
O       1.88048      9.60026      0.66603        -0.167132      0.259185     -1.529247
O       1.84521      9.56226     13.56136        -0.089615      0.340587      0.950000
O      13.35782      9.72243      0.61751        -0.217133     -0.174482     -0.667857
O      13.42636      9.61272     13.78005         0.248866     -0.022496     -1.211957
O       1.90920      9.58270      4.88091        -0.179377     -0.317235     -0.569761
O      13.43475      9.69150      5.07424        -0.227641     -0.443650     -1.271661
O       1.92757      9.59864      9.25434        -0.067780      0.168447     -2.258198
O      13.38144      9.57554      9.19735         0.254749     -0.281338     -1.925837
O       5.80740      2.01425      0.49365        -0.087539     -0.236959     -1.187520
O       5.83721      1.78000     13.70741        -0.036086     -0.023464      1.024324
O       6.00391     13.19877      0.66438        -0.900879      0.514587     -0.256854
O       5.67797     13.58483     13.75089         0.112717     -0.364610     -0.778405
O       5.77390      1.79369      4.88509        -0.059681      0.374539      0.489643
O       5.82956     13.45593      4.96222        -0.218809     -0.416955     -0.611649
O       5.70686      1.93005      9.32212         0.070288      0.095996     -0.593438
O       5.54539     13.46911      9.35030         0.375236     -0.164184      0.131752
O       5.62109      5.71865      0.54151         0.732348      0.116844     -0.600119
O       5.64627      5.84458     13.75031         0.024932     -0.311771     -2.121047
O       5.71105      5.65593      4.93346        -0.089791      0.479182     -0.623096
O       5.73939      5.85041      9.34721         0.211130     -0.259966     -1.223915
O       5.62135      9.71762      0.56363         0.069924     -0.364877     -0.809084
O       5.66177      9.54644     13.77291         0.443793      0.283652     -1.107513
O       5.82117      9.48631      5.00395        -0.206250      0.386417     -1.896124
O       5.72598      9.67197      9.34912         0.373187     -0.585377     -0.069265
O       9.62696      1.95297      0.58602        -0.190883     -0.159697     -1.151437
O       9.47272      1.93856     13.67578         0.013043      0.183170     -1.075816
O       9.66385     13.47226      0.64470        -0.189758     -0.209775     -1.878992
O       9.70361     13.57942     13.79123        -0.228328     -0.716544     -2.100204
O       9.74809      2.17833      4.90248        -0.381638     -0.847925     -0.955181
O       9.69887     13.41201      4.95878        -0.755846     -0.142937      0.510906
O       9.35646      1.76653      9.38918         0.650528      0.342147     -0.612876
O       9.54091     13.55286      9.35802        -0.309798     -0.112287     -0.368205
O       9.66011      5.74978      0.65473        -0.463233      0.335278     -0.659339
O       9.78776      5.63333     13.63267        -0.663471      0.370078     -1.578678
O       9.66374      5.89983      5.00700        -0.314114     -0.730843     -0.661265
O       9.54619      5.70206      9.22546        -0.387924      0.040189      0.947328
O       9.67148      9.38532      0.65215        -0.060703      0.317687     -2.486745
O       9.57493      9.68902     13.63182        -0.236502     -0.394712     -0.135588
O       9.48943      9.48015      5.17691         0.320586      0.402317     -1.731240
O       9.66645      9.54344      9.35675        -0.629374      0.111212     -1.263301
O       3.81071      1.88809      2.56642         0.547163      0.462275      0.213600
O       3.88922      1.80925     15.89062        -0.300118      0.007664      0.258302
O       3.77629     13.37443      2.78613         1.205912     -0.178472     -0.300598
O       3.91134     13.45575     15.99029        -1.519079      0.166240      0.263399
O      15.35807      1.78444      2.85987        -0.394007      0.730477     -0.287564
O       0.05151      1.90512     15.79463        -0.889515      0.024843     -0.077082
O      15.33429     13.61275      2.66682        -0.526140     -0.603533      0.389874
O      15.32646     13.44091     15.79883         0.114483     -0.065306      0.501933
O       3.93540      1.98012      7.11073        -0.887492     -0.297227      0.350536
O       3.82915     13.41335      6.96986        -0.577522     -0.451520      0.703205
O       0.06945      1.83858      6.97479        -0.206912      0.216885      0.568539
O      15.35337     13.34858      6.98206         0.750435      0.323287      0.774312
O       3.86279      1.77720     11.51982         0.043794      0.530360      0.118293
O       3.81873     13.51140     11.44829         0.347621      0.115205      0.599439
O       0.00495      1.91452     11.50809         0.333605      0.197704      0.011700
O       0.01282     13.33837     11.38285        -0.574729      0.217498      0.848098
O       3.84714      5.78804      2.55276        -0.309753      0.033184      0.863835
O       3.83223      5.74641     15.92274        -0.660720      0.152270     -0.307661
O       0.02664      5.80615      2.67213        -0.970641     -0.265284      0.352596
O       0.07277      5.88273     15.73834        -0.707324     -0.196984      0.391711
O       3.86803      5.73391      7.11655        -0.540991      0.352319     -0.082797
O      15.35526      5.79133      7.14818         0.682101     -0.252913      0.462895
O       3.82142      5.89182     11.36488         1.252067     -0.154307      0.779935
O       0.05354      5.61254     11.20111        -1.367899      0.860335      0.886874
O       3.75471      9.44346      2.67704         0.852630      0.993249      0.623310
O       3.79324      9.67084     15.79329        -0.606347     -0.052848      0.373184
O      15.26831      9.53571      2.62352        -0.120606      0.227740      0.553853
O      15.33708      9.67173     15.85060         0.438372     -0.539548      0.117628
O       3.84207      9.45441      7.03193        -0.552622      0.465991      0.089119
O      15.35857      9.60170      7.09525        -0.574997     -0.478712      0.215773
O       3.77564      9.41891     11.36036         1.190790      0.381416      0.524112
O      15.34633      9.75036     11.36613        -1.011062     -0.205326      0.131376
O       7.71225      1.92690      2.67318        -0.574911     -0.057214      0.153478
O       7.70402      1.95462     15.91719        -0.060375     -0.072082      0.000631
O       7.67122     13.42710      2.79356        -0.116874     -0.139097      0.149328
O       7.65347     13.40611     15.78784         0.526066     -0.082516      0.416750
O       7.68906      1.85695      7.11456        -0.140628      0.532611     -0.204241
O       7.58157     13.38180      7.10049         1.195276     -0.180753      0.366818
O       7.66568      1.90725     11.47275        -0.818553      0.296748      0.474254
O       7.69699     13.45198     11.48798        -1.799617     -0.745725      0.322254
O       7.62831      5.78416      2.86950        -0.089245     -0.166914     -0.716871
O       7.58945      5.77736     15.77574         1.678563     -0.236592      0.098345
O       7.66341      5.72147      7.01057        -0.395225      0.305291      0.422323
O       7.71305      5.73658     11.43367        -1.048147      0.153309      0.572392
O       7.61911      9.67483      2.61531         0.028774     -0.212670      0.491378
O       7.65862      9.64115     15.93129         0.110364     -0.549346     -0.525076
O       7.66958      9.52139      7.24069        -0.084020      0.282792      0.147753
O       7.69882      9.62234     11.52584        -0.815773     -0.008680      0.135234
O      11.47801      2.02425      2.72071         1.063901      0.034674      0.335370
O      11.46723      2.02281     15.50270         0.643188     -0.242138      0.743297
O      11.43600     13.32199      2.81981         0.857564      0.132458      0.271289
O      11.53474     13.61144     15.79912         0.298362     -0.846888      0.497839
O      11.47086      1.84800      7.17610         0.675005      0.078806     -0.292597
O      11.46933     13.39239      7.11669        -0.603365      0.090709      0.215067
O      11.48236      2.03782     11.46943         0.664687     -0.824133     -0.096800
O      11.47993     13.46343     11.40151        -0.004897     -0.041335      0.644326
O      11.50858      5.77576      2.84947        -0.468354      0.108864     -0.002079
O      11.50149      5.60412     15.84539        -0.667790      1.079457     -0.417247
O      11.56588      5.65043      7.02641        -0.766208     -0.143248      0.897093
O      11.42426      5.80908     11.24866         1.024382     -0.232452      1.182818
O      11.41658      9.63810      2.78508         1.171432     -0.279075      0.219001
O      11.49274      9.62105     15.76144        -0.336717     -0.204379      0.491974
O      11.53278      9.77679      7.33353        -0.826271     -1.518832     -1.120230
O      11.45697      9.58033     11.48637         1.243384      0.335568     -0.206670
O       1.92846      3.91064      2.79422        -0.323681     -0.805843     -0.271761
O       1.94434      3.83655     15.65437         0.275041      0.296538      0.704724
O       2.06301     15.32415      2.63064        -0.656885      0.553933      0.254082
O       1.91150     15.32357     15.82378         0.093161     -0.169087      0.613250
O      13.45740      3.83839      2.76352         0.264844      0.232661      0.272279
O      13.49380      3.85797     15.80770         0.056862     -0.647661     -0.279124
O      13.24884      0.00527      2.57846         0.309017      0.730356      0.993150
O      13.40519      0.11217     15.80778         0.572839     -0.720759     -0.421850
O       1.96871      3.79428      7.09764        -0.135049      1.088402      0.467867
O       2.01497     15.27613      7.03147        -0.203859      1.011171      0.407754
O      13.46144      3.80240      7.17505         0.334029     -1.136100     -0.040523
O      13.45602     15.22675      7.05226        -0.125265      1.794248      0.519367
O       1.97398      3.83048     11.46935         0.402235     -0.062939      0.156719
O       1.88484     15.33729     11.38705        -0.207718     -0.351295      0.725088
O      13.43791      3.85803     11.25871        -0.146784     -0.077318      0.867378
O      13.42981      0.03609     11.47969         0.133896     -0.829514      0.315173
O       1.97681      7.63688      2.61524        -0.643767     -0.342836      0.522391
O       2.02924      7.70533     15.82117        -0.577555      1.004619     -0.007436
O      13.43060      7.64363      2.66140        -0.349479      1.781470      0.531170
O      13.36016      7.62052     15.81795         0.178662      1.198405      0.466974
O       1.84999      7.71060      7.14902         0.356176     -0.936192      0.000098
O      13.28638      7.64253      7.07457         0.599132      0.515143      0.539161
O       1.73175      7.79532     11.35071         0.176336     -1.755952      0.476549
O      13.44184      7.74201     11.36202         0.270630     -0.619462      0.156676
O       1.84888     11.54880      2.85574         0.239349     -1.118441     -0.728202
O       1.90958     11.49865     15.89022        -0.212636     -0.480868      0.092509
O      13.36946     11.55924      2.72289         0.463991     -1.264907      0.332436
O      13.42133     11.53195     15.74234        -0.237112      0.139326      1.113358
O       1.87549     11.42910      6.99606         0.613635      1.031195      0.303805
O      13.42663     11.49420      7.24639         0.102989      0.108862     -0.075020
O       2.08936     11.56470     11.45880        -0.496893     -0.583670     -0.238564
O      13.38208     11.49814     11.30041        -0.209092     -0.132683      0.634858
O       5.73421      3.80943      2.71793         0.181719      0.483171     -0.114928
O       5.68530      3.78136     15.74717         0.310312      0.067347      0.295592
O       5.77853     15.34144      2.58489        -0.206063      0.084647      0.241718
O       5.83737     15.32583     16.01570        -0.066142     -0.009268      0.074063
O       5.76631      3.88510      7.12612         0.251909     -0.530346     -0.012932
O       5.73206     15.33396      7.10371        -0.190743      0.108295      0.225860
O       5.82516      3.88406     11.59904        -1.276290     -0.247041     -0.999601
O       5.81739     15.34736     11.40458        -0.088614     -0.153309      0.438340
O       5.82935      7.73006      2.70666        -0.520960     -1.202978     -0.046973
O       5.72411      7.66206     15.74361        -0.195668      0.862527      1.100187
O       5.73270      7.64312      7.08259         0.428919     -0.147780      0.314052
O       5.87349      7.62308     11.55492        -0.142366      0.845242     -0.094211
O       5.69007     11.47235      2.75492        -0.056792     -0.686384      0.698306
O       5.67661     11.57950     15.82917         0.444159     -1.347414      0.208014
O       5.62629     11.44704      7.20954         0.648623      0.064680     -0.393771
O       5.64597     11.45156     11.47625         0.549183      0.938741      0.491188
O       9.59823      3.88459      2.63786        -0.219806     -0.594542      0.731338
O       9.54407      3.87486     15.88167        -0.723827     -0.081217     -1.050407
O       9.76806     15.32734      2.70097        -1.175642      0.597494      0.094203
O       9.45867     15.33941     15.72226         0.463706      1.097975      0.742122
O       9.60741      3.78657      7.05569        -0.339744      0.142202      0.560739
O       9.53939      0.00043      7.04280         0.028642     -0.133685     -0.009238
O       9.59990      3.78098     11.36036        -0.421243      1.566898      0.556636
O       9.61024      0.02024     11.57896        -0.141091     -0.753529      0.148076
O       9.55626      7.67417      2.79975        -0.028761      0.174721      0.234090
O       9.57096      7.68045     15.77611         0.112687     -0.773403     -0.087141
O       9.67578      7.58998      7.12939        -0.252645      0.748744      0.542536
O       9.61530      7.71382     11.49742        -0.628493     -1.059628      0.164040
O       9.55782     11.50446      2.79735        -0.159621     -0.552696     -0.064940
O       9.56602     11.50445     15.78001         0.503977      0.125617      0.234278
O       9.55852     11.52048      7.32193        -0.492485      0.106226     -0.677433
O       9.59624     11.48598     11.58247        -0.690753      0.986485     -0.506782
