  # total energy = -7880.06407260 
CRSYTAL
PRIMVEC
    15.2000000000000000    0.0000000000000000    0.0000000000000000
     0.0000000000000000   15.2000000000000000    0.0000000000000000
     0.0000000000000000    0.0000000000000000    17.000000000000000
PRESSURE
7.68624 8.07974 2.86874 -0.186897 -0.032587 -0.066194
PRIMCOORD
320 1
Pb       3.72554      3.86777      4.22266        -0.019784     -0.756930      0.459983
Pb       3.76638      3.84100      0.08457         0.354609     -0.139084     -0.257031
Pb       3.68463      0.04833      4.33150         0.376893     -0.204145      0.483034
Pb       3.87964     15.19826      0.02411        -0.060202      0.225151      0.075061
Pb      15.08882      3.90758      4.18016         0.121446     -0.836949      0.346439
Pb      15.18253      3.67759     16.98128         0.278194      0.368027      0.219378
Pb       0.01234      0.10496      4.21569        -0.440716      0.140162      1.121565
Pb       0.03670     15.19922     16.87281        -0.044062     -0.079293      0.762672
Pb       3.80289      3.68459      8.47951         0.000369      0.466646      0.163403
Pb       3.75524     15.12332      8.50802        -0.151154      0.028826     -0.291338
Pb      15.11253      3.81169      8.45994         0.489682     -0.605345      0.668912
Pb      15.19601     15.12253      8.66941         0.036516      0.294300     -0.402220
Pb       3.77903      3.84921     12.76808         0.478527     -0.355952      0.026348
Pb       3.82024     15.11170     12.66985         0.183407      0.153051     -0.064557
Pb       0.05953      3.56456     12.76591        -0.673391      1.052254     -0.092980
Pb       0.04060     15.15771     12.70793        -0.400209     -0.528575      0.010122
Pb       3.62896      7.69660      4.26447         0.586112      0.063852     -0.050177
Pb       3.93582      7.59396      0.06652        -0.709921     -0.717230      0.034696
Pb      15.18050      7.66852      4.17197        -0.591445      0.045816      0.478709
Pb       0.18032      7.66187     16.95125        -0.850917     -0.319387      0.030622
Pb       3.70158      7.56800      8.45201         0.718365      0.192711      0.276730
Pb      15.11849      7.52502      8.50942         0.179931      0.671827      0.445486
Pb       3.85653      7.58574     12.66175        -0.068063     -0.172571      0.327865
Pb      15.14770      7.48422     12.66756        -0.039279      0.235227      0.193583
Pb       3.63118     11.46094      4.25918         0.695700      0.111300      0.395185
Pb       3.86227     11.36941      0.11558        -0.080546      0.524589     -0.196830
Pb      15.12470     11.46226      4.19433        -0.296855     -0.106237      0.717544
Pb       0.08980     11.42074     16.97451        -0.258985     -0.144160      0.021578
Pb       3.78263     11.34394      8.45544        -0.029648      0.022735     -0.201100
Pb      15.02264     11.36352      8.50889         0.587958     -0.107882      0.157124
Pb       3.80064     11.30152     12.73955        -0.285369      0.451899     -0.269801
Pb       0.02040     11.30988     12.65697        -0.002727      0.113898     -0.192068
Pb       7.58609      3.75053      4.10825         0.080928      0.233528      1.136343
Pb       7.56273      3.77040     16.94933        -0.234247     -0.020660      0.171756
Pb       7.60647      0.08596      4.20978         0.025519     -0.587632      0.460434
Pb       7.58271     15.19173      0.02194        -0.018993      0.249955     -0.258856
Pb       7.64684      3.90890      8.32977        -0.673284     -0.682342      0.979071
Pb       7.56442     15.11823      8.32747         0.094264      0.212575      0.738563
Pb       7.49179      3.76639     12.70760         0.528714     -0.153795      0.214690
Pb       7.64393      0.08498     12.68603        -0.253072     -0.179640      0.729927
Pb       7.58243      7.68714      4.41097         0.369943     -0.265432     -0.722662
Pb       7.42878      7.60622     16.93840         0.722004     -0.529273      0.683993
Pb       7.62435      7.56340      8.45178        -0.203823      0.060210      0.633585
Pb       7.64331      7.49388     12.76705        -0.441680     -0.031273     -0.474841
Pb       7.61117     11.40385      4.17652        -0.185316      0.222405      0.013822
Pb       7.69913     11.36315     16.99757        -0.213456      0.067841      0.252942
Pb       7.51177     11.40690      8.34810         0.365813      0.124017      0.908327
Pb       7.48286     11.21750     12.70501         0.581988      0.412346      0.186482
Pb      11.45157      3.62093      4.17115         0.451573      0.351459      0.765887
Pb      11.44818      3.77066      0.00635        -0.181541      0.389989      0.082286
Pb      11.39306      0.02403      4.19309        -0.034766      0.090025      0.513304
Pb      11.42097     15.11915     16.88856        -0.497141      0.068031      0.639164
Pb      11.30891      3.79222      8.46425         0.392276     -0.197465     -0.169165
Pb      11.27898     15.14861      8.46213         0.154624      0.383826      0.420028
Pb      11.42295      3.80968     12.79058        -0.086846     -0.177718     -0.006115
Pb      11.38098     15.11262     12.84312        -0.199344      0.284250     -0.257668
Pb      11.39864      7.72640      4.18999         0.291116     -0.005452      0.547623
Pb      11.28523      7.51366     16.97975         0.797594      0.300750      0.049218
Pb      11.30944      7.53938      8.36780        -0.030324      0.400822      0.370072
Pb      11.27892      7.40678     12.69133         0.158164      0.778679      0.226424
Pb      11.43655     11.46197      4.15262        -0.156356     -0.566357      0.596817
Pb      11.32602     11.40417      0.07224         0.125908     -0.264279     -0.506095
Pb      11.31782     11.43852      8.52127        -0.104419     -0.408088     -0.295844
Pb      11.45125     11.38459     12.92476        -0.465496     -0.180885     -1.001380
Ti       1.92145      1.84654      2.23104        -0.692865      0.635147      0.565243
Ti       1.93157      1.85891     14.92763         0.653420      0.519448     -0.148998
Ti       1.78149     13.34079      2.34623         0.508331      0.375200     -0.267548
Ti       1.94921     13.32001     15.02561         0.068173     -0.959129     -0.467340
Ti      13.30729      1.81876      2.11172         1.024745      1.143091      0.364766
Ti      13.27421      1.86313     14.98156         0.407799      0.277233     -0.228556
Ti      13.21024     13.33393      2.23433         0.704989      0.459193     -0.034432
Ti      13.25198     13.24927     15.04974         0.261709     -0.123513     -0.456802
Ti       1.89536      1.89557      6.60660         0.003966     -0.308651      0.285402
Ti       1.76757     13.26772      6.54309         0.937063      0.783242     -0.689433
Ti      13.39011      1.87713      6.54343        -1.408252     -0.041545     -1.145408
Ti      13.23321     13.37154      6.57424        -0.051469     -1.041463     -1.152708
Ti       1.91881      1.83360     10.72999         0.423468      0.564297     -0.797871
Ti       1.86049     13.21078     10.70938        -0.187303     -0.084577      0.195655
Ti      13.28238      1.81077     10.78985        -0.165988      0.743717     -0.153113
Ti      13.15509     13.21768     10.74027         0.727976      0.472978      0.734161
Ti       1.91535      5.72182      2.28880        -0.874136     -0.972293     -1.400206
Ti       1.89724      5.66329     15.00211         1.178303      0.509016      0.327098
Ti      13.32727      5.78501      2.20804        -0.113011     -0.800677      0.259623
Ti      13.37691      5.67894     15.02832        -0.400063      0.295041     -0.150561
Ti       1.91304      5.72750      6.55696        -0.223134     -1.187103     -0.299537
Ti      13.33470      5.70313      6.56924        -0.932716     -0.185117     -1.259445
Ti       1.89026      5.63977     10.76748        -0.497987      0.052953      0.427780
Ti      13.29075      5.63142     10.72309         0.584259     -0.157103      0.948191
Ti       1.90318      9.54391      2.18559        -0.246453      0.011490      0.798109
Ti       2.00436      9.54711     14.97387        -0.845312     -0.361477     -0.562226
Ti      13.30894      9.54607      2.11416        -0.636140     -0.701100     -0.476364
Ti      13.36520      9.53676     14.93187        -0.360485     -1.561005      2.795090
Ti       1.87621      9.50585      6.47989        -0.199779      0.456198      0.549050
Ti      13.29472      9.53811      6.57874        -1.160527     -0.061677     -0.857810
Ti       1.91581      9.47592     10.63647        -1.055366      0.044502     -0.420661
Ti      13.19708      9.47236     10.63908         0.528868     -0.258587     -0.799003
Ti       5.70325      1.88380      2.37061        -0.434151     -0.488882     -1.642717
Ti       5.68939      1.83364     14.99518         0.228386      1.219452     -0.465094
Ti       5.64663     13.28387      2.32076        -0.244202      0.463985      1.324073
Ti       5.73946     13.24284     14.96492        -0.523223      0.844224     -0.142881
Ti       5.71505      1.87023      6.58473        -0.485107      0.581946     -1.238758
Ti       5.59238     13.31197      6.46655         0.158831     -0.665030     -0.762978
Ti       5.68546      1.80768     10.66217         1.139847      0.626054     -0.295784
Ti       5.67008     13.23914     10.66234        -0.603636      0.072706      0.502940
Ti       5.74574      5.73895      2.35669        -0.375678     -0.805761     -0.750345
Ti       5.63951      5.62922     15.07662        -0.166724     -0.610076     -0.506960
Ti       5.65101      5.73431      6.39684        -0.260946     -1.571940     -0.001003
Ti       5.67437      5.61095     10.65578         0.504122      0.797599     -0.040988
Ti       5.71963      9.49000      2.28464         0.032396     -0.126596      0.547548
Ti       5.65350      9.52041     15.03717         0.511983     -0.993892     -0.319790
Ti       5.73929      9.48139      6.49347        -1.318760      0.345504     -0.608035
Ti       5.68150      9.46799     10.70233         0.751630     -0.737542     -0.992435
Ti       9.54596      1.95676      2.14014        -0.219941     -0.914199      0.194143
Ti       9.55466      1.90610     15.03468        -1.011989     -0.209406     -0.442724
Ti       9.44373     13.33579      2.20642         0.252148     -0.404376     -0.238910
Ti       9.40407     13.25088     14.95536         0.477698      0.579267      0.220514
Ti       9.52101      1.87673      6.49613         0.792995     -0.022417     -1.382516
Ti       9.45669     13.28547      6.37583        -0.091584      0.191621      0.429361
Ti       9.56096      1.91684     10.71901        -0.776071      0.154559     -0.279766
Ti       9.35064     13.29125     10.77347         0.674324     -0.304203      0.453638
Ti       9.60588      5.74287      2.32608        -0.972957     -0.234005     -1.729216
Ti       9.49239      5.64600     15.05333         0.003691     -0.563290     -1.108254
Ti       9.43564      5.67642      6.46067         1.012911      0.702345      0.505721
Ti       9.47290      5.66208     10.70586        -0.795561     -0.070983     -0.920220
Ti       9.49136      9.50770      2.12552         0.051253     -0.186896      0.464183
Ti       9.47707      9.40847     14.96428         0.962567      0.105961     -0.404045
Ti       9.49835      9.56194      6.46259         0.457934     -0.825719      0.314637
Ti       9.48253      9.50726     10.72478        -0.170202     -0.350346      0.343605
O       1.88773      1.69961      0.49397         0.136384      0.332807     -0.862551
O       1.86829      1.76771     13.09338         0.596664      0.012055      0.946407
O       1.72532     13.32812      0.55282         0.458297      0.137057      0.258047
O       1.92628     13.12810     13.22785         0.069891      0.619911      0.751226
O      13.28699      1.84929      0.33606         0.284253     -0.286716      0.012670
O      13.34258      1.93833     13.17935        -0.171206     -0.373707      0.372884
O      13.21957     13.36299      0.46240         0.251904     -0.152648     -0.109428
O      13.19276     13.30790     13.23773         0.205633     -0.740441      0.961764
O       1.96625      1.83639      4.85557        -0.193424      0.453494     -0.777932
O       1.74696     13.34904      4.73606         0.302793     -0.606853      0.510071
O      13.34690      1.90241      4.71776        -0.266913     -0.085674      0.597781
O      13.23875     13.12710      4.78426        -0.320176      0.693625      0.271527
O       1.87335      1.91852      8.93299        -0.075445     -0.258439      0.695369
O       1.73962     13.27778      8.96108         0.329168     -0.345478     -1.022042
O      13.30262      1.87149      9.00519        -0.165035     -0.097751      0.461980
O      13.25479     13.28900      8.96125        -0.269456      0.038812     -0.016623
O       1.93049      5.70452      0.48299        -0.254070      0.001695      0.886698
O       2.09947      5.69304     13.21875        -0.748802      0.120196      0.292674
O      13.40405      5.73344      0.45454        -0.324794     -0.050361     -0.043090
O      13.37564      5.58016     13.23098        -0.318362      0.477628      0.701658
O       1.90032      5.58525      4.78012        -0.084414      0.556037     -0.221963
O      13.44209      5.74995      4.78042        -0.251287      0.021832      0.569707
O       1.89134      5.71115      8.99738        -0.099004      0.146273      0.161463
O      13.31026      5.53203      8.97068        -0.003282      0.492399     -0.697713
O       1.88376      9.58659      0.41721         0.429370     -0.122786      0.792763
O       1.98657      9.60318     13.14332        -0.174978     -0.133935      1.043810
O      13.25587      9.32653      0.35544         0.283701      0.700066      0.994850
O      13.35889      9.61507     13.22299        -0.080911     -0.091379     -1.545341
O       1.91061      9.51307      4.70559        -0.247313     -0.243530     -0.356894
O      13.17137      9.42854      4.78829         0.439110      0.358512     -0.222851
O       1.91989      9.46801      8.82461         0.068044     -0.113982      0.801262
O      13.03212      9.49737      8.82328         0.707621      0.337349      1.054849
O       5.84675      1.88503      0.51221        -0.388183     -0.361030      0.891031
O       5.62403      1.88899     13.22111        -0.044933     -0.222904     -0.561201
O       5.66288     13.36666      0.58786         0.040191     -0.198676     -1.175460
O       5.73959     13.24708     13.20405        -0.514190      0.010894      0.379880
O       5.55638      1.90670      4.77475         0.590497     -0.203328      0.114650
O       5.63714     13.23532      4.69421         0.182651      0.049239     -0.130270
O       5.86180      1.71168      8.87094        -0.590630      0.604298      0.631227
O       5.57435     13.26141      8.88852         0.599255     -0.019367      0.270652
O       5.69131      5.61104      0.51544        -0.007866      0.233511      0.335169
O       5.48871      5.71941     13.30297         0.291435     -0.268915     -0.320616
O       5.69266      5.61760      4.57349        -0.396722      0.399752      0.962484
O       5.65296      5.67247      8.88634         0.211345     -0.018563      0.539311
O       5.65830      9.37671      0.48894         0.178857      0.450748      0.028415
O       5.61394      9.44426     13.24756         0.103935      0.167569      0.338910
O       5.77772      9.39179      4.65641         0.080051      0.079522      0.945852
O       5.55801      9.50602      8.89936         0.497087     -0.144853      0.632658
O       9.49452      1.89568      0.34087        -0.161485      0.178392      0.970027
O       9.61285      1.95008     13.26078        -0.266939     -0.112122     -0.270781
O       9.50059     13.24438      0.39066        -0.215634     -0.079188      0.862548
O       9.33672     13.34325     13.19211         0.470193     -0.316510      0.175936
O       9.63809      1.73354      4.65050        -0.433298      0.473988      1.029926
O       9.45719     13.26197      4.61156         0.075412      0.181079     -0.045764
O       9.56617      1.98842      8.90467        -0.171766     -0.396972      0.568742
O       9.36814     13.25899      8.98180         0.187433      0.005503      0.984761
O       9.65338      5.55723      0.45891        -0.423745      0.468270      1.510427
O       9.53008      5.69816     13.16954         0.081230      0.055762      1.004478
O       9.53570      5.89385      4.75188        -0.393847     -0.413546     -1.371319
O       9.42771      5.67917      8.82424         0.112469     -0.035893      1.307076
O       9.58572      9.56104      0.35061        -0.365357     -0.286870     -0.274415
O       9.39844      9.28828     13.14184         0.449813      0.367715      1.667536
O       9.42397      9.37210      4.68553        -0.246398      0.365795      0.162690
O       9.39297      9.60594      8.95089         0.470182     -0.246377      0.089383
O       3.77363      1.69972      2.67397         0.305695      1.081768     -0.567223
O       3.82569      1.83761     15.41136        -1.032507     -0.536973     -0.047036
O       3.68540     13.33732      2.70871         0.447197     -0.228118     -0.521359
O       3.86458     13.36653     15.46982        -0.124554     -0.018722     -0.343991
O      15.16840      1.77220      2.50312         0.062037      0.196511      0.015466
O       0.03023      1.84413     15.28106         0.073083      0.069879      0.085460
O      15.09374     13.42560      2.84994        -0.138494     -0.904542     -1.353463
O       0.02357     13.23739     15.42218        -0.356423     -0.131090     -0.612103
O       3.80014      1.85493      7.01907         0.069655      0.376420     -0.143208
O       3.75104     13.25798      6.87848        -0.613416     -0.297222     -0.040471
O      15.18237      1.70711      6.92593         0.365238      0.364617      0.133423
O      15.13669     13.41874      6.85368        -0.509053     -0.281763      0.428394
O       3.86393      1.98969     10.98341        -0.983498     -0.326427      0.138414
O       3.74376     13.08658     11.07046         0.742222      0.569931      0.081575
O       0.05875      1.67337     11.11262        -1.189470      0.429548     -0.054158
O      15.16612     13.34677     11.07712        -0.675841     -0.259582      0.251738
O       3.71141      5.59011      2.62639         1.002415      0.287304      0.063620
O       3.80154      5.64460     15.54848        -1.061604      0.581599     -0.191266
O      15.15845      5.69584      2.71990         0.309285      0.637430     -0.507203
O       0.11771      5.61867     15.45916        -1.099122     -0.330006     -0.409987
O       3.78741      5.62204      6.96273         0.079443      0.236550     -0.710252
O      15.19980      5.70577      7.03290         0.213304      0.448085     -0.584640
O       3.79045      5.58029     11.12077        -0.449337      0.471492     -0.388800
O      15.17778      5.60888     11.25378         0.501851      0.718413     -0.560059
O       3.77487      9.54874      2.69311        -0.525958     -0.429094     -0.493471
O       3.85429      9.37663     15.48361        -0.430799      0.544961     -0.257908
O      15.15630      9.52033      2.52948         0.622695      0.170659      0.005998
O       0.14573      9.63389     15.36515        -1.233463      0.285556     -0.329685
O       3.78469      9.51129      6.78983         0.500734     -0.159573     -0.122425
O      15.11450      9.54790      6.85432         1.559236     -0.536613      0.209275
O       3.83145      9.54617     11.04014        -0.968984     -0.212087      0.063328
O      15.10571      9.64712     10.82102         0.658234     -0.603985      0.490506
O       7.63388      1.83716      2.74970         0.356666      0.484560     -0.859106
O       7.59207      2.03772     15.25192         0.694554     -0.167673      0.366495
O       7.60199     13.22754      2.55894        -0.580253      0.077709      0.170454
O       7.58430     13.17584     15.45220        -0.368142      0.245765     -0.017992
O       7.63554      1.88538      6.78186        -0.621229     -0.516014     -0.004951
O       7.57458     13.24862      6.78315        -0.226208      0.478046     -0.041899
O       7.59639      1.84599     11.17302         0.267752      0.012630     -0.366960
O       7.49147     13.37448     11.21214         0.965817     -0.241158     -0.837723
O       7.55598      5.59327      2.60945         1.429937      0.482244     -0.008179
O       7.57918      5.56661     15.33576         0.377015      0.276731      0.069907
O       7.51258      5.74324      6.76972         0.591986     -0.251736     -0.096605
O       7.55495      5.67972     11.12458         0.379412      0.217290     -0.115150
O       7.61893      9.42589      2.51418        -1.087711      0.209953      0.258387
O       7.57907      9.40372     15.42754         0.030546      0.116559     -0.394942
O       7.55282      9.44707      7.03466         0.090191      0.422875     -1.278742
O       7.58853      9.35950     11.20007        -0.602324      0.351523     -0.453710
O      11.43121      1.90658      2.49901        -0.934587     -0.090342      0.066511
O      11.44379      1.72538     15.34142        -0.023199      0.831486     -0.097896
O      11.34699     13.29491      2.66205         0.072696     -0.112607     -0.461276
O      11.31145     13.21437     15.41184         0.814960      0.039955     -0.630134
O      11.41451      2.02029      6.75097        -0.658856     -0.298247      0.672989
O      11.28406     13.37330      6.92392         0.231044     -0.918108     -0.253508
O      11.38605      2.03332     11.17999         0.379546     -0.329834     -0.408485
O      11.31636     13.24280     11.25522        -0.293005     -0.406700     -0.582276
O      11.42362      5.67233      2.75881         0.492443      0.374655     -0.644622
O      11.38928      5.60489     15.43211         1.547625      0.756881     -0.493807
O      11.39037      5.61598      6.85253        -0.106793      0.403009     -0.019876
O      11.40223      5.65000     11.07402        -0.256488     -0.085778     -0.079839
O      11.31904      9.49401      2.59716         1.224131      0.143352     -0.283184
O      11.45268      9.36519     15.33552        -0.574736      0.263913     -0.693942
O      11.37009      9.57412      6.84690        -1.560423     -0.344120     -0.096151
O      11.37400      9.49140     11.13232        -0.667277     -0.082254      0.198194
O       1.77369      3.75285      2.60524         0.457036     -0.082545     -0.117892
O       1.96530      3.75594     15.38717        -0.107844     -0.502968     -0.346947
O       1.82797      0.00516      2.77392         0.187826     -0.292235     -0.505630
O       1.95379      0.00301     15.32134        -0.301740     -0.602386     -0.044739
O      13.34181      3.77165      2.51656        -0.217406      0.300774      0.037184
O      13.27827      3.74364     15.45434         0.440208     -0.079834     -0.427259
O      13.17311      0.02369      2.65113         0.242789     -0.745378     -0.334302
O      13.26859     15.14574     15.32642         0.351607     -0.498025     -0.159402
O       1.82110      3.82052      6.96024         0.234961     -0.287722     -0.203796
O       1.96746     15.19275      6.83381        -0.162973     -0.685033      0.698165
O      13.33862      3.75313      6.83458         0.410936      0.704741      0.213975
O      13.08285     15.18435      6.93906         0.543097      0.654192     -0.158196
O       1.76568      3.74732     11.16583         0.635750     -0.031570     -0.485006
O       1.95466     15.11519     10.90205         0.544428      0.384512      0.940098
O      13.40910      3.78805     11.20118        -0.282512     -0.980811     -0.488410
O      13.15381     15.15103     11.21790         0.285926      0.128349     -0.416386
O       1.85273      7.60828      2.63022         0.220493      0.548021     -0.134747
O       1.85250      7.68474     15.37634         0.585025     -1.050464     -0.563507
O      13.30788      7.69431      2.62152        -0.183819     -0.925166     -0.071541
O      13.57317      7.52391     15.26448        -0.538014      0.697266     -0.229952
O       2.00717      7.61052      6.78095        -0.782181     -0.331673      0.126784
O      13.24844      7.62584      6.99629         0.113071     -1.095632     -0.311283
O       1.71527      7.63685     11.08815         0.902836     -0.586735     -0.201431
O      13.32359      7.61273     10.94939         0.131961     -0.932679      0.490320
O       1.84643     11.41550      2.71559        -0.358689     -0.104965     -0.715799
O       2.08728     11.43039     15.53633        -0.120534      0.178439     -0.573169
O      13.24595     11.45111      2.55195         0.146414     -0.679336     -0.149873
O      13.17153     11.33333     15.53372         0.720060      1.013519     -0.837485
O       1.84793     11.37600      6.83951        -0.213226      0.281684      0.027034
O      13.23906     11.43552      6.90809        -0.065066      0.339182      0.288658
O       1.80081     11.30975     11.10093         0.448223      0.549389     -0.232933
O      13.23093     11.35007     11.05802        -0.249621      1.158800      0.253066
O       5.74393      3.70771      2.63716        -0.700733      0.761073      0.049202
O       5.50319      3.74114     15.37699         0.801780      0.363451      0.255266
O       5.72303     15.18222      2.66887         0.230931     -0.425540      0.108214
O       5.88283      0.00865     15.26734        -0.390630     -1.550177      0.588522
O       5.69279      3.75930      6.89529        -0.074125      0.598031     -0.272523
O       5.55980     15.14504      6.83165         0.838260      0.490116      0.118000
O       5.80767      3.78679     11.14343        -0.783083     -0.585419     -0.547540
O       5.60288     15.14076     11.05202        -0.206086      0.082060      0.183252
O       5.57270      7.56344      2.53172         0.099359      0.542490      0.364802
O       5.67225      7.50198     15.42570         0.177156      1.157696      0.042523
O       5.73008      7.53260      6.84333        -0.643907      1.066092     -0.374277
O       5.69127      7.56943     11.09279        -0.537854     -0.220653     -0.119443
O       5.59588     11.35588      2.66853         0.482328      0.183407     -0.352687
O       5.62823     11.35816     15.44932         0.229655      0.134597     -0.203164
O       5.67311     11.39623      6.85793         0.059426     -0.902295     -0.315076
O       5.75599     11.37305     11.08995         0.173883     -0.331946     -0.105871
O       9.57867      3.78646      2.68363        -0.542523     -0.210971     -0.389925
O       9.65718      3.79265     15.36176        -0.251386     -0.548626      0.053401
O       9.47020     15.19122      2.52937         0.123960      0.419600     -0.216953
O       9.53161     15.17949     15.34984        -0.786547     -0.519793     -0.107112
O       9.36935      3.80030      6.78483         0.531790      0.054650     -0.370385
O       9.47210     15.18859      6.91782         0.029098      0.018969     -0.515804
O       9.40044      3.81651     11.03084         0.249636     -0.417493      0.258159
O       9.58230      0.01194     11.14516        -0.369746     -0.234491     -0.378446
O       9.45303      7.60943      2.43479         0.264876     -0.803129      0.339368
O       9.61760      7.50935     15.36716        -1.109179      0.664318     -0.087328
O       9.38399      7.66125      6.85593         0.530176     -0.618777      0.038902
O       9.43235      7.52399     11.07381         0.600029      0.298905     -0.089388
O       9.44142     11.35482      2.58471         0.120241      0.595056     -0.224157
O       9.43914     11.32988     15.33889         0.371668     -0.382511     -0.429113
O       9.42765     11.41316      6.79923        -0.032232      0.131349     -0.123721
O       9.36602     11.31141     11.23457         0.185645      1.340294     -0.368299
