  # total energy = -7879.84750227 
CRSYTAL
PRIMVEC
    15.2000000000000000    0.0000000000000000    0.0000000000000000
     0.0000000000000000   15.2000000000000000    0.0000000000000000
     0.0000000000000000    0.0000000000000000    17.000000000000000
PRESSURE
7.44754 6.9597 3.43545 -0.25818 0.14761 -0.037416
PRIMCOORD
320 1
Pb       3.63368      3.86591      4.29446         0.276617     -0.196772     -0.278534
Pb       3.97889      3.91515      0.05476        -0.319171     -0.207117      0.143514
Pb       3.59550      0.22598      4.38240         0.037391     -0.632520     -0.136512
Pb       3.92086     15.17481     16.99443         0.200149      0.138824     -0.200025
Pb      15.16211      3.91372      4.17556         0.416128     -0.277927     -0.403385
Pb       0.14556      3.74996     16.93024        -0.530304      0.398294      0.652328
Pb      15.14946      0.30559      4.47645         0.579699     -0.572550     -0.820133
Pb       0.07242     15.09602     16.88975         0.010964      0.145625      0.039161
Pb       3.96527      3.82977      8.43708        -0.550897     -0.456713     -0.544347
Pb       3.82641     14.95129      8.73956        -0.156284      0.522425     -0.782999
Pb       0.08006      3.70357      8.68080        -0.229510      0.163698     -1.054725
Pb      14.93404     15.06889      8.62876         0.887139      0.366928     -0.505417
Pb       3.83447      3.78802     12.60236        -0.120090     -0.236531      0.811403
Pb       3.83607     15.17765     12.77334        -0.159627     -0.264788      0.126228
Pb      15.18677      3.74023     12.70403        -0.100180     -0.097172      0.206471
Pb       0.09253     15.16971     12.85898        -0.232305      0.207035     -0.446668
Pb       3.64927      7.75217      4.34575        -0.057416     -0.296599     -0.081387
Pb       3.89701      7.64925      0.02142        -0.205461     -0.490838     -0.243864
Pb      15.06732      7.88777      4.27542         0.340708     -0.829664     -0.014312
Pb       0.03404      7.59109     16.81696        -0.007911     -0.294335      0.936040
Pb       3.79728      7.59610      8.35082        -0.257285     -0.236220      0.253952
Pb      15.04950      7.47832      8.52616        -0.068517     -0.061846      0.022214
Pb       3.78681      7.43060     12.55888        -0.259314      0.526441      0.216241
Pb      15.13751      7.34323     12.68084         0.324409      0.631007      0.113735
Pb       3.48938     11.51540      4.35502         0.504465     -0.240128     -0.151473
Pb       4.06855     11.42876      0.33352        -0.401669      0.002360     -0.580533
Pb      15.04455     11.56051      4.22088         0.709910     -0.381863     -0.355337
Pb       0.14452     11.41591     16.92538        -0.144147     -0.214853     -0.188612
Pb       3.71171     11.39860      8.54591        -0.033970      0.045281     -0.160550
Pb      15.00065     11.41063      8.56521         0.082069     -0.121994     -0.099928
Pb       3.71214     11.28981     12.71607         0.254703     -0.070265     -0.113905
Pb      15.18020     11.06122     12.89293        -0.105922      0.435843     -0.543904
Pb       7.56268      3.77812      4.18436        -0.255837      0.176781     -0.414109
Pb       7.55027      3.77795      0.06174         0.145076     -0.143936     -0.222144
Pb       7.58551     15.15207      4.22965         0.036836      0.129798     -0.162264
Pb       7.64555     15.11208      0.01038        -0.130604      0.313126     -0.305747
Pb       7.70259      3.78041      8.31474        -0.244511     -0.305868      0.092843
Pb       7.61449     15.09802      8.38082         0.025215      0.515986     -0.045617
Pb       7.55892      3.85585     12.75873         0.217557     -0.797464      0.091515
Pb       7.56397     15.15714     12.79707         0.239656      0.275764      0.181513
Pb       7.74687      7.64717      4.21459        -0.363764     -0.611003      0.544807
Pb       7.50467      7.73720      0.07935        -0.098725     -0.682267     -0.106836
Pb       7.52508      7.63728      8.32223         0.582601     -0.412277      0.012214
Pb       7.43384      7.50892     12.62872         0.500335      0.175750      0.589628
Pb       7.49199     11.37112      4.25606         0.247995      0.386873     -0.367142
Pb       7.62396     11.44298      0.02280        -0.084191      0.239452      0.209725
Pb       7.51450     11.56789      8.52101         0.391333     -0.386501     -0.582766
Pb       7.45270     11.27372     12.68381         0.504405     -0.151916      0.575835
Pb      11.43158      3.77509      4.09203         0.222094      0.230562     -0.023750
Pb      11.39918      3.63401     16.99761        -0.198871      0.329765     -0.065992
Pb      11.50523     15.19584      4.13953        -0.330797     -0.101471     -0.439976
Pb      11.50894     15.11106     16.91307        -0.644284      0.542311      0.437297
Pb      11.42190      3.80600      8.44790        -0.058472      0.115092      0.164421
Pb      11.25874      0.00787      8.39102         0.258641     -0.085593      0.355220
Pb      11.34651      3.73817     12.81233         0.340842     -0.024995      0.000305
Pb      11.41321     15.10475     12.74146         0.018312      0.368708      0.058640
Pb      11.46114      7.77084      4.07784        -0.248270     -0.783281      0.728757
Pb      11.34575      7.52971     16.90604         0.362696      0.122014     -0.064520
Pb      11.25873      7.48932      8.58519         0.314908      0.243213     -0.893493
Pb      11.31677      7.46952     12.86121         0.144872      0.095369     -0.118857
Pb      11.40303     11.32007      4.12346        -0.214220      0.140062      0.019427
Pb      11.42545     11.50060     16.85050        -0.074669     -0.760386      0.256455
Pb      11.25769     11.49782      8.50760         0.480730     -0.659319      0.112305
Pb      11.34076     11.31520     12.65303         0.212686     -0.160425      0.550386
Ti       1.92330      1.94006      2.13727        -0.858426      0.433415      1.368248
Ti       2.00646      1.91656     15.05592         0.053159     -0.475580     -0.754839
Ti       1.91057     13.38796      2.15343        -0.770124     -0.265657      0.388199
Ti       1.94655     13.24562     14.94966         0.727857     -0.476279     -0.629191
Ti      13.31737      1.88011      2.18702         0.772666      0.227785      0.112129
Ti      13.34486      1.82054     15.00196        -0.115729      0.653891      0.079544
Ti      13.32932     13.24311      2.07555         0.176358      1.261587      2.131986
Ti      13.28959     13.27712     14.79380         0.874961     -0.689500      0.927296
Ti       1.88428      1.82979      6.70525        -0.144935     -0.069206     -0.388409
Ti       1.83291     13.25317      6.58440        -0.076339      1.123988      0.533776
Ti      13.25266      1.90945      6.53059         0.528138     -0.280799      0.720347
Ti      13.22205     13.27472      6.36225         1.032841     -0.142049      1.218011
Ti       1.94029      1.85987     10.77920        -0.359680     -0.977578     -0.628600
Ti       1.89373     13.22388     10.83193         0.137537      0.576568     -0.768742
Ti      13.26926      1.87661     10.76755        -0.163383     -0.714876     -0.465597
Ti      13.37046     13.23442     10.81996        -0.585063      0.143724      0.378857
Ti       1.87019      5.82010      2.16724        -0.337752     -1.318810      0.390412
Ti       1.95573      5.60465     14.87968        -0.033567      1.178093      1.184821
Ti      13.25775      5.72030      2.07212         1.257624     -0.859474      0.719629
Ti      13.31890      5.58400     15.03776        -0.666651      0.549973     -0.509728
Ti       1.85611      5.67059      6.43258        -0.105195     -0.471631      1.572215
Ti      13.27599      5.65041      6.30780        -0.048767      0.349870      1.696286
Ti       1.93109      5.59268     10.59917        -0.004657      1.454794      0.661243
Ti      13.24361      5.64974     10.76035        -0.002756     -0.938731     -0.913030
Ti       1.88991      9.52144      2.20620        -0.296787      0.455894      1.295061
Ti       1.95929      9.42442     14.95049        -0.623285      0.149756     -0.250132
Ti      13.33078      9.52188      2.00437        -0.373268     -0.217640      0.336529
Ti      13.27830      9.45428     14.95077        -0.373342     -0.157544     -0.192888
Ti       1.70638      9.45918      6.64195         1.042774      0.255323     -0.503370
Ti      13.22077      9.46191      6.57144        -1.186301     -0.027139      0.449055
Ti       1.88628      9.43854     10.70132        -0.562101     -0.981398      0.453074
Ti      13.22164      9.40262     10.85504         0.473433      0.189946     -0.763163
Ti       5.62496      1.91851      2.28834         0.048557     -0.399970     -0.552667
Ti       5.75345      1.87305     14.92133        -0.460150      0.308116      1.744994
Ti       5.59750     13.36026      2.40915         0.711078     -0.308900     -0.538417
Ti       5.68786     13.23465     14.96601         0.224488      0.881595     -0.295778
Ti       5.70043      1.76174      6.40949        -0.419485      0.607455      0.729042
Ti       5.65178     13.22128      6.38394        -0.374222      1.055964     -0.697390
Ti       5.73093      1.88727     10.68993         0.422022     -0.741260     -0.358970
Ti       5.77666     13.27761     10.81477        -1.369310     -0.261416     -0.415262
Ti       5.63337      5.76138      2.37545         0.177524     -0.537592     -1.064149
Ti       5.70323      5.72507     14.94462        -0.225343     -0.611119      1.589632
Ti       5.72102      5.69460      6.38324         0.017902     -0.321054      0.522485
Ti       5.72800      5.60425     10.51545        -0.067042      0.190211      1.353706
Ti       5.68725      9.46708      2.42716         0.036172      1.268543     -0.772536
Ti       5.66639      9.53236     14.97917        -0.055296     -0.623629      0.202112
Ti       5.60926      9.51877      6.38708         0.198067     -0.013863      0.627197
Ti       5.69996      9.45239     10.56980        -1.214435     -0.316432      0.929642
Ti       9.48221      1.86070      2.21782        -0.056367     -0.547599     -1.317922
Ti       9.49672      1.84238     15.00291        -0.774764      0.137298      0.865073
Ti       9.47384     13.24297      2.24600        -0.068540      0.484713      1.142669
Ti       9.52324     13.25080     14.87403        -0.641360     -0.132493      0.376919
Ti       9.51398      1.93635      6.28226        -0.573482     -1.188213      1.559380
Ti       9.53756     13.26749      6.31046        -1.120504     -0.392236      1.022241
Ti       9.47709      1.80530     10.79881        -0.384327      0.290749     -0.456436
Ti       9.50156     13.23249     10.77372         0.591887      0.025027     -0.165645
Ti       9.50755      5.68463      2.15358        -0.579556     -0.359752      0.343844
Ti       9.37513      5.70429     15.06381         0.625796     -0.866134      0.604639
Ti       9.56296      5.65865      6.27262        -0.369613      0.864907     -0.278551
Ti       9.47170      5.56000     10.81657         0.236329      0.822182     -0.097561
Ti       9.48995      9.46040      2.16171         0.021015      1.093718      1.343875
Ti       9.41217      9.44422     14.96288         0.963391      0.668618      0.011785
Ti       9.44407      9.47647      6.45749         1.577318      0.150539     -0.193977
Ti       9.43474      9.35500     10.74873         0.913635      0.540202     -0.293463
O       1.88645      2.01858      0.37884         0.231571     -0.677830     -0.366491
O       1.95797      1.93786     13.23848        -0.227326      0.033001      0.048688
O       1.98630     13.24201      0.36099        -0.184876      0.239988      0.163779
O       2.05793     13.15576     13.07547        -0.450918      0.283270      1.236229
O      13.29659      1.99828      0.42437         0.080205     -0.673008     -0.785883
O      13.32280      1.84939     13.24790         0.034082      0.106064     -0.505817
O      13.35331     13.27976      0.35016        -0.142344     -0.100307     -1.027404
O      13.31315     13.34184     13.04872         0.137500     -0.323496      0.336693
O       1.73941      1.85940      4.87474         0.226106     -0.083899      0.023998
O       1.89975     13.42356      4.82265        -0.489341     -0.747056     -0.408365
O      13.29486      1.89076      4.74452        -0.013639     -0.084432     -0.213286
O      13.34202     13.31822      4.58553        -0.321866     -0.091502      0.577851
O       1.94967      1.81034      8.98601         0.029587      0.221638      0.362067
O       2.06266     13.36448      8.98058        -0.604237     -0.838823      0.466780
O      13.20703      1.79638      8.92501        -0.083858      0.349004      1.118807
O      13.25605     13.16322      9.00325         0.047119      0.326852      0.517218
O       1.88164      5.73684      0.39482         0.413767      0.179741      0.376011
O       1.93833      5.56954     13.11861        -0.067146     -0.005362     -0.407168
O      13.30152      5.65959      0.31573        -0.295510     -0.100665     -0.310987
O      13.30411      5.67321     13.19799         0.051381     -0.344864      0.731186
O       1.79178      5.67799      4.67441         0.356942      0.170772      0.019530
O      13.18992      5.56763      4.53840         0.278555      0.530072      0.474179
O       1.92146      5.62286      8.86087        -0.044061     -0.106792     -0.180622
O      13.26068      5.60324      8.92795        -0.268678      0.075620      1.199305
O       1.83103      9.44585      0.48785         0.223367      0.210019     -0.854362
O       1.90805      9.45211     13.13260         0.057266      0.124639      0.604534
O      13.33359      9.60694      0.25952        -0.068825      0.006379      0.401480
O      13.31127      9.34717     13.07511        -0.000382      0.258730      1.560175
O       1.81480      9.53413      4.82318        -0.287598     -0.471764      0.047249
O      13.26964      9.53522      4.79772        -0.079291     -0.356505     -1.067931
O       1.85264      9.41640      8.94218         0.138902      0.089333     -0.471531
O      13.35857      9.32812      9.04114        -0.386646      0.277526      0.412763
O       5.49932      1.87400      0.47758         0.367025      0.077635      0.562473
O       5.79392      1.90325     13.17814         0.010786     -0.105448     -1.027229
O       5.63284     13.32705      0.51108        -0.223821     -0.229813      0.283061
O       5.72012     13.24846     13.14663        -0.029513     -0.456849      0.360750
O       5.71804      1.87240      4.63856         0.127132     -0.014273     -0.261294
O       5.66967     13.21674      4.56119        -0.143107      0.299308      1.199373
O       5.71536      1.83612      8.90537        -0.051539      0.173654      0.365799
O       5.69871     13.30542      8.98754         0.467759     -0.431702      0.381205
O       5.56249      5.81368      0.50030         0.230440     -0.001852      0.820718
O       5.86976      5.61656     13.21851        -0.372175      0.211078     -1.156023
O       5.68703      5.63882      4.64805        -0.174560     -0.082711     -1.165540
O       5.69877      5.69165      8.79490         0.202341     -0.159885     -1.136865
O       5.67027      9.50167      0.54819        -0.021782     -0.138667      0.485418
O       5.80957      9.43776     13.22113        -0.428720      0.141412     -0.137780
O       5.55619      9.65831      4.61463         0.396916     -0.437915      0.314036
O       5.72310      9.42818      8.81273        -0.012145      0.129695      0.126126
O       9.54997      1.84492      0.35063        -0.210551     -0.367002      1.445122
O       9.38395      1.76491     13.23656         0.120233      0.430552     -0.266202
O       9.49766     13.29615      0.49308        -0.028997      0.058326     -0.889119
O       9.51283     13.19770     13.11273        -0.202239      0.074732      0.075013
O       9.45309      1.85760      4.56281         0.114576      0.327491     -0.851728
O       9.54247     13.21596      4.56158        -0.003459      0.034631     -0.028380
O       9.46225      1.85427      9.02089         0.251341     -0.045186     -0.150746
O       9.49012     13.27043      8.93545        -0.220289      0.012210      1.003642
O       9.40350      5.70901      0.37536         0.299426      0.037700      0.591845
O       9.39701      5.70983     13.29315        -0.215133     -0.208627     -0.883027
O       9.59895      5.64269      4.50340        -0.142280     -0.205030      0.107538
O       9.43894      5.65070      9.07005         0.488156      0.020075     -0.931389
O       9.38150      9.58144      0.44463         0.133650     -0.365166     -0.798541
O       9.53551      9.47392     13.16890        -0.700506     -0.085531      0.743781
O       9.61932      9.48523      4.65474        -0.152196      0.193093      0.546313
O       9.45986      9.25695      8.96248        -0.073599      0.227903      0.068730
O       3.72278      1.98441      2.72697        -0.442929     -0.327807     -0.049830
O       3.85603      1.73722     15.29180        -0.539980      0.166960      0.000131
O       3.71194     13.21117      2.70243        -0.148215     -0.016576     -0.479883
O       3.84004     13.37389     15.29722        -0.270962     -0.188829     -0.076109
O       0.01465      1.99353      2.72029         0.002502     -0.518518     -0.663499
O       0.03118      1.91372     15.35479         0.188537      0.340305     -0.053961
O       0.01563     13.29890      2.41628        -0.427592     -0.387912      0.205763
O       0.02332     13.17838     15.24414        -0.087633      0.166787     -0.035775
O       3.83032      1.79032      6.57583        -0.522267      0.303827      0.897548
O       3.80016     13.30466      6.79840        -0.204642     -0.540830      0.431062
O      15.14732      1.82952      7.02572        -0.534395      0.351307     -0.279886
O      15.13563     13.23359      6.95010        -0.493021     -0.353350     -0.305988
O       3.83368      1.66300     11.16547        -0.411679      0.363057     -0.379362
O       3.80931     13.42481     10.99500         0.709417     -0.148601      0.506544
O      15.12874      1.97627     11.10854         1.317891      0.366517     -0.107889
O       0.04485     13.12078     11.06743        -0.298329     -0.158802     -0.005178
O       3.77532      5.79280      2.61638        -0.721685      0.121062      0.307583
O       3.80333      5.75726     15.23330         0.190158      0.554074      0.131966
O       0.02058      5.59856      2.44241        -1.214091      0.435081      0.194037
O      15.19146      5.59070     15.31590         0.439346     -0.175737     -0.407095
O       3.80252      5.66192      6.76882        -0.473194      0.087511     -0.092402
O      15.18254      5.56273      6.83959        -0.905455      0.238074     -0.396139
O       3.89275      5.67157     10.98833        -1.169134      0.043384      0.071677
O       0.00525      5.48516     11.02312        -0.040287      0.179239     -0.020511
O       3.81628      9.64708      2.62557        -1.487247     -0.906887     -0.167309
O       3.75835      9.40176     15.33233         1.006867     -0.003763     -0.050796
O      15.10870      9.48677      2.65389         0.650532      0.231985     -0.488385
O      15.16350      9.51585     15.36739         0.557778      0.692634     -0.723349
O       3.78478      9.41119      6.79787        -0.092631      0.307294      0.081565
O      15.08207      9.38113      6.89718         1.015977      0.203181      0.232300
O       3.78093      9.31290     11.11028         0.684952     -0.003299     -0.443850
O      15.17317      9.40326     11.16048         0.568528      0.157328     -0.108455
O       7.52024      1.83304      2.57744         0.288485      0.070699     -0.189693
O       7.53174      1.90793     15.52894         0.851938     -0.086133     -0.435645
O       7.52648     13.34798      2.61878         0.638673      0.100559     -0.062818
O       7.61841     13.19227     15.34489         0.079631     -0.242070     -0.145404
O       7.58296      1.81056      6.73190         1.455645      0.409087      0.181199
O       7.53712     13.26245      6.65620         1.223699     -0.210566      0.523094
O       7.57161      1.99105     11.02885         0.221932     -0.072979      0.407981
O       7.61821     12.97040     11.15817         0.180637      0.680779     -0.747456
O       7.55642      5.72297      2.59024         0.627000     -0.185727     -0.018411
O       7.51891      5.63545     15.46506        -0.028216      0.114430     -0.141313
O       7.65314      5.68995      6.58957         0.019783     -0.368502      0.632895
O       7.54916      5.41724     10.94966         0.248544      0.496063      0.582375
O       7.59495      9.44204      2.70531         0.399079      0.320709     -0.363756
O       7.55810      9.70388     15.44267         0.376280     -0.684037     -0.582548
O       7.60252      9.35360      6.70496        -0.639296      0.791205     -0.028399
O       7.53436      9.50893     10.97880         0.412987      0.014441      0.338360
O      11.41306      1.86261      2.52922        -0.770831     -0.136273      0.199297
O      11.37727      1.76254     15.33785         0.303939      0.109933     -0.129324
O      11.39172     13.26277      2.50285         0.332730      0.178584      0.007114
O      11.44517     13.44247     15.29182        -0.206317     -0.423742     -0.308550
O      11.33615      1.72919      6.76244         0.141062      0.322144      0.066153
O      11.36843     13.28025      6.81457         0.820281     -0.179418     -0.289370
O      11.39014      1.70964     11.17411        -0.079909      0.117048     -0.033336
O      11.39785     13.33189     11.21516         0.089869      0.206033     -0.776564
O      11.39763      5.57163      2.48282        -0.729790      0.482578     -0.410452
O      11.33845      5.80208     15.29194         0.290989     -0.156652      0.061959
O      11.35290      5.64612      6.81215         0.950281      0.312243      0.121139
O      11.36777      5.65696     11.18841        -0.279143      0.079605     -0.042640
O      11.42752      9.48634      2.51336        -0.195487      0.369359     -0.310727
O      11.35494      9.38066     15.41535         0.064321     -0.187561     -0.527739
O      11.38641      9.58320      6.93095        -0.758060     -1.003854      0.107169
O      11.34729      9.35973     11.13440         0.359505     -0.273498     -0.198988
O       1.90413      3.81672      2.62086         0.147852      0.334490     -0.175649
O       2.05376      3.82769     15.43202        -0.331103     -0.754599     -0.483526
O       1.84762      0.02133      2.64571         0.300742      0.405630     -0.602267
O       1.88821     15.16636     15.31960        -0.395745     -0.265045     -0.093986
O      13.22953      3.74670      2.50545         0.163768      0.931769      0.233098
O      13.13049      3.72639     15.30116         0.387559      0.490507     -0.076444
O      13.30755      0.01660      2.50144        -0.099072     -0.944093      0.051095
O      13.48815     15.14519     15.27840        -0.546377     -0.190212      0.274134
O       1.85459      3.73472      6.94149         0.477645      0.442944     -0.069323
O       1.77259     15.12051      6.94444         0.379496      0.256572      0.028881
O      13.10894      3.75517      6.84862         0.569893      0.332637     -0.392946
O      13.30764     15.15313      6.88614        -0.323547     -0.673104     -0.480123
O       2.05471      3.76054     10.98260        -0.172904     -0.807132      0.339504
O       1.71548     15.16824     11.14326         0.488866      0.176102      0.155855
O      13.16454      3.75568     11.15523        -0.061658     -0.599447      0.014935
O      13.52959     15.14431     11.25111        -0.748989      0.249852     -0.890684
O       1.79560      7.63873      2.75312         0.501849      0.675319     -0.435321
O       1.80084      7.56405     15.36061         0.345240     -0.159515     -0.726871
O      13.19921      7.59555      2.39609         0.441728      0.252324      0.209716
O      13.44368      7.61597     15.38914        -1.071703     -0.869072     -0.650778
O       1.87043      7.56594      6.97031        -0.155867     -0.512562     -0.757916
O      13.28244      7.52758      6.88121        -0.273957     -0.805033     -0.577877
O       1.84909      7.46620     11.05454         0.183591      0.120535      0.043318
O      13.26082      7.43959     11.17890         0.352283      1.066706     -0.321861
O       1.83889     11.40438      2.64119        -0.331547      0.004024     -0.224782
O       1.92770     11.34642     15.32257         0.144729      0.177237     -0.210186
O      13.31030     11.36961      2.58946        -0.122444      0.281960     -0.431074
O      13.13718     11.37693     15.17455         0.412244      0.437112     -0.232444
O       1.89081     11.30603      6.97465        -0.080903      0.812355     -0.005737
O      13.28060     11.32944      6.82762         0.260502      1.672978      0.182387
O       2.05736     11.31218     10.97456        -0.088552      0.100765      0.246686
O      13.30867     11.33701     11.20178        -0.344692     -0.363408     -0.377768
O       5.57597      3.80058      2.52576         0.456618      0.765069      0.447320
O       5.53065      3.77782     15.34295         0.769474      0.470570     -0.153398
O       5.42037      0.02867      2.57053         0.620983     -0.293537      0.291237
O       5.80832     15.18174     15.28672        -0.120935     -0.920874      0.129333
O       5.72391      3.81716      6.85250         0.113991     -0.936945     -0.263026
O       5.72439     15.10746      6.94730        -0.098528      0.135821     -0.833884
O       5.51477      3.71808     11.01604         0.480126      0.449444     -0.362672
O       5.86611     15.10952     11.13415         0.036927      0.537373     -0.149141
O       5.71207      7.63715      2.79309        -0.456633     -0.131779     -0.241435
O       5.80021      7.62338     15.39246        -0.230301      0.408943     -0.192887
O       5.67793      7.58656      6.79369         0.006572      0.190166     -0.415874
O       5.74655      7.45878     11.06818         0.235102      0.896824     -0.558113
O       5.74089     11.44571      2.64988        -0.108441     -0.834845     -0.589431
O       5.58153     11.38114     15.44967         0.055124      0.177798     -0.241152
O       5.75540     11.38855      6.89605        -0.364415     -0.553858     -0.193012
O       5.56225     11.29624     11.03425         0.107385      0.056660     -0.023580
O       9.40576      3.71879      2.40427         0.060777      1.060332      0.455143
O       9.35368      3.76678     15.38229         0.831723     -0.026003     -0.285045
O       9.40877      0.00294      2.71752         0.621447     -0.548030     -0.644278
O       9.44909     15.11744     15.28630        -0.340790      0.149527      0.222544
O       9.62565      3.76714      6.72834        -0.800090     -0.385196      0.038544
O       9.52400     15.09605      6.77983        -0.561693      0.832674     -0.345993
O       9.56483      3.73272     11.22563         0.101953     -0.497714      0.026072
O       9.31985     15.13622     11.16177         0.185727     -0.466134     -0.265536
O       9.47435      7.60181      2.65087         0.542129     -0.502234     -0.859988
O       9.39063      7.58742     15.48736        -0.495949      0.815475     -0.563347
O       9.50472      7.55206      6.64987         0.393664      0.112544      0.608618
O       9.44746      7.53003     11.25823        -0.396536     -0.406985     -0.571712
O       9.44939     11.34517      2.57277        -0.009400      0.237763     -0.026297
O       9.68898     11.37980     15.32774        -0.627429      0.137089     -0.263517
O       9.56010     11.39372      6.94643        -1.067539     -0.042553     -0.659654
O       9.73408     11.33743     11.02028        -1.138186     -0.463184     -0.414212
