  # total energy = -7878.14738661 
CRSYTAL
PRIMVEC
    15.2000000000000000    0.0000000000000000    0.0000000000000000
     0.0000000000000000   15.2000000000000000    0.0000000000000000
     0.0000000000000000    0.0000000000000000    17.000000000000000
PRESSURE
8.00605 8.34857 3.29194 0.036277 0.248168 0.088156
PRIMCOORD
320 1
Pb       3.90703      3.65644      4.16872         0.009981     -0.078848     -0.157140
Pb       3.61921      3.65146     16.85586         0.496684      0.213913      0.654305
Pb       3.98451     14.96396      4.08099        -0.645197      0.627297      0.793121
Pb       3.61089     15.14549     16.89664         0.561226      0.242364      0.034824
Pb      15.18486      3.48574      4.18829         0.078677      0.985345      0.205573
Pb      15.08579      3.92457     16.97244         0.084199     -0.389307      0.204950
Pb      15.12362     14.90333      4.18783         0.300945      0.723563      0.221404
Pb      15.05293      0.01154      0.10929        -0.252631     -0.177358     -0.220183
Pb       3.47841      3.96644      8.52794         1.233330     -1.104948      1.115601
Pb       3.80814      0.05530      8.35977        -0.428103     -0.241842     -0.264823
Pb      15.18422      3.81179      8.42224        -0.249412      0.148301     -0.021032
Pb       0.09464      0.10619      8.20269         0.015738     -0.799467      0.352061
Pb       3.72885      3.78576     12.71375         0.109575      0.231358      0.490553
Pb       3.76112      0.05408     12.73050        -0.165807     -0.123021      0.692870
Pb      15.02755      3.98450     12.75127         0.830375     -0.526601      0.138803
Pb      15.06329      0.02728     12.67535        -0.038071     -0.032800      0.374114
Pb       3.90080      7.43920      4.14730        -0.398217      0.436361     -0.287039
Pb       3.60495      7.48265     16.81046         1.032168      0.369879      1.642311
Pb      15.18658      7.44863      4.29274         0.621208      0.131215     -0.473908
Pb      14.99545      7.50880      0.14798         0.254085      0.383447     -0.084302
Pb       3.80368      7.52032      8.57927        -0.128259      0.537750     -0.318671
Pb       0.10089      7.67633      8.47465         0.307544     -0.302481     -0.080468
Pb       3.77995      7.75805     12.84887        -0.291764     -0.615815      0.285922
Pb      15.18684      7.76526     12.86125         0.485091     -0.389422     -0.406950
Pb       4.08607     11.25415      4.13593        -0.895629     -0.348648      0.169075
Pb       3.67512     11.39588     16.76465         0.105308     -0.182151      0.534801
Pb       0.13578     11.22712      4.21320        -0.128397      0.165788      0.085933
Pb      15.02128     11.35461      0.00114         0.444904      0.078021      0.654969
Pb       3.81219     11.41926      8.46273         0.122980     -0.345621     -0.046069
Pb       0.21619     11.41332      8.35070        -0.688462      0.219214      0.672360
Pb       3.89705     11.61105     12.64798        -0.428527     -0.831704      0.314892
Pb       0.04809     11.56822     12.78234        -0.089556     -0.719701     -0.475748
Pb       7.60360      3.85930      4.38236         0.138039     -0.676495     -0.579005
Pb       7.54807      3.76795     16.89423         0.443874      0.109848      0.276528
Pb       7.58924     15.14250      4.23807        -0.019655      0.620431     -0.325342
Pb       7.52590     15.19485     16.85605         0.158958      0.027842      0.333589
Pb       7.28761      3.73004      8.74864         0.350470      0.608828     -0.095984
Pb       7.55539      0.05980      8.66098         0.007662     -0.183023     -0.738539
Pb       7.66186      3.77937     12.70926        -0.300648      0.190632      0.325583
Pb       7.49058     15.00829     12.74437         0.484869      0.670155      0.546713
Pb       7.48263      7.52207      4.09131         0.131639      0.035737      0.056722
Pb       7.78167      7.51457      0.03964        -0.517721     -0.268073     -0.291489
Pb       7.49872      7.50977      8.58757         0.370091      0.622437      0.133401
Pb       7.60747      7.64033     12.70446         0.227455     -0.055012      0.229627
Pb       7.64803     11.50031      4.29004         0.093193     -0.935449     -0.221918
Pb       7.40693     11.34208     16.96536         0.740223     -0.423385      0.079184
Pb       7.69013     11.31876      8.62606        -0.280735     -0.655670     -0.174322
Pb       7.71730     11.54270     12.77302        -0.704111     -0.857538      0.237987
Pb      11.24929      3.80125      4.41292         0.199333     -0.228783      0.031850
Pb      11.27923      3.82537     16.92151         0.113562      0.214393      0.578419
Pb      11.29600     15.16127      4.27879        -0.137998      0.426223      0.001112
Pb      11.29606      0.15591      0.08137         0.257971     -0.360739      0.053929
Pb      11.34789      3.82820      8.49665         0.544022      0.191307     -0.018675
Pb      11.52542     15.16305      8.55423        -0.060869      0.452437     -0.705564
Pb      11.42352      3.81976     12.59204        -0.256244      0.225415      0.763691
Pb      11.39405      0.00952     12.61323        -0.245311     -0.104002      0.665604
Pb      11.27331      7.38844      4.32257         0.132918      0.829981      0.145243
Pb      11.45764      7.66384      0.06913         0.016036     -0.488265     -0.104790
Pb      11.47669      7.62778      8.56906        -0.348869     -0.120520     -0.592186
Pb      11.57082      7.79319     12.80058        -0.733269     -0.810930     -0.034341
Pb      11.38028     11.46315      4.28484        -0.654952     -0.730937     -0.037187
Pb      11.35196     11.28528      0.07811         0.375846     -0.087403      0.041261
Pb      11.48103     11.32634      8.34301        -0.475915     -0.430259      0.480349
Pb      11.48038     11.42506     12.68211         0.000242      0.351514      0.397751
Ti       1.88258      1.70849      2.24669         0.393158      0.767131      0.399172
Ti       1.72095      1.83870     14.93787         1.187931      0.559231     -0.235769
Ti       1.84458     13.15296      2.19255         0.215648      0.294592     -0.056637
Ti       1.70114     13.34577     14.97778         0.571588     -0.552335     -0.531275
Ti      13.21395      1.84189      2.31704        -0.154276      0.213857     -0.155753
Ti      13.20380      1.88128     15.01818        -0.222670     -0.099311     -0.071566
Ti      13.16720     13.18430      2.32003         0.376463      0.996962     -1.091652
Ti      13.12805     13.30805     15.06019         1.018750      0.402576      0.365427
Ti       1.98309      1.97512      6.34937         0.133613     -1.634924      0.617582
Ti       1.92268     13.25172      6.31771         0.111203      0.569333      0.706054
Ti      13.27943      1.88247      6.37696        -0.108622      0.388844      0.694160
Ti      13.20188     13.24168      6.40905         1.916428      0.394108      0.124196
Ti       1.91210      1.82001     10.72140        -0.850619      2.046111      0.017580
Ti       1.79417     13.38721     10.65613         0.379301     -1.747524     -0.398655
Ti      13.35417      1.93672     10.66891        -0.577508     -0.231257      0.074496
Ti      13.28903     13.24884     10.58781        -0.325945     -0.316794      1.101788
Ti       1.89365      5.53361      2.22567         0.443803      0.825333     -0.240032
Ti       1.89161      5.68812     15.02210        -0.883846     -0.832049     -0.407329
Ti      13.28564      5.67633      2.36999        -0.332140     -0.806878     -0.415936
Ti      13.26687      5.68316     14.96041        -0.627528      1.197656     -0.723806
Ti       1.93451      5.70732      6.39520        -0.333931      0.728735     -0.244857
Ti      13.33747      5.72331      6.52224         0.148659     -0.674518      0.454477
Ti       1.88278      5.72937     10.89918        -0.412079      0.041078     -0.212942
Ti      13.33340      5.75416     10.73419        -0.050130     -0.215004     -0.936529
Ti       1.87607      9.38952      2.19835         0.537479     -0.949919      0.094417
Ti       1.81842      9.50696     15.07107        -0.219903     -0.210534     -0.635037
Ti      13.23720      9.43464      2.51240         0.031134     -0.234137     -1.601587
Ti      13.30366      9.55290     15.00757        -0.430764     -0.747033      1.212758
Ti       1.98285      9.53338      6.38413         0.987613     -1.053957     -0.525220
Ti      13.39167      9.46951      6.42323        -0.396252     -0.349016     -0.779123
Ti       1.96763      9.55453     10.77717        -2.095263     -0.171966     -0.091166
Ti      13.39106      9.48938     10.70836         0.576879      1.075443      1.020197
Ti       5.67070      1.78056      2.05833         1.036627      0.750189      1.381091
Ti       5.70680      1.86318     14.97096        -0.702771      0.241799     -0.754482
Ti       5.70070     13.16059      2.05988        -0.264679      0.359994     -0.634083
Ti       5.66222     13.22957     15.01371        -0.100377      1.087226      0.354064
Ti       5.76483      1.89005      6.50829        -1.239057      0.291881     -0.207167
Ti       5.72925     13.23834      6.51583        -0.779486     -0.110838     -0.383453
Ti       5.66215      1.86286     10.79105         0.082153      1.098008      0.346641
Ti       5.57664     13.35052     10.65654         1.508933     -1.699128      0.743859
Ti       5.66640      5.49233      2.06414         1.560411      0.551075     -0.494274
Ti       5.69392      5.64135     15.08195         0.191252      0.144319     -0.737494
Ti       5.65936      5.64278      6.62610         0.579463     -0.391515     -1.093633
Ti       5.63760      5.72505     10.93173         0.096381     -0.852440     -0.732027
Ti       5.66063      9.31832      1.94386        -0.319758     -0.279777      0.360844
Ti       5.69278      9.37029     14.93361        -0.443266      0.256584      0.160964
Ti       5.75887      9.47022      6.52824        -0.437678     -0.021768     -0.340814
Ti       5.67510      9.43087     10.78165         0.577750      1.714991     -0.318391
Ti       9.46004      1.90958      2.27295        -0.909941      0.843855      0.714777
Ti       9.48929      1.86766     14.89289        -0.245446      0.437212      0.021224
Ti       9.42060     13.27071      2.11021         0.010420     -0.404882      1.040258
Ti       9.48820     13.20032     15.17288        -0.414054      1.310869     -1.701784
Ti       9.47314      1.88564      6.63789         0.625397      0.454057     -1.404095
Ti       9.40969     13.28345      6.61739         0.087147      0.016347     -0.040925
Ti       9.48583      1.96644     10.73071        -0.135330      0.013676      0.242031
Ti       9.46596     13.32032     10.72336         0.017086     -1.235023      0.165373
Ti       9.49709      5.64463      2.24967        -0.396274     -0.966743      0.836894
Ti       9.54420      5.71457     14.88889         0.485086     -1.111667     -0.435462
Ti       9.43631      5.71371      6.66181         0.856880     -0.454324     -0.499421
Ti       9.56730      5.78072     10.73603        -0.194643      0.030281      0.471823
Ti       9.45974      9.40928      2.20373         0.292524      0.001222      0.327808
Ti       9.48154      9.46819     14.96893        -0.375173     -1.164340     -0.654870
Ti       9.51425      9.40761      6.40897        -0.069982      0.239545     -0.529424
Ti       9.55965      9.56894     10.84554        -0.635222     -0.889593     -1.470774
O       1.86756      1.82851      0.45210        -0.138607     -0.566310      0.347340
O       1.87038      1.71228     13.15664        -0.229004      0.436853      0.230937
O       1.79648     13.39023      0.40216         0.269204     -0.392766      0.447319
O       1.74432     13.36058     13.14786         0.172185      0.090149      0.604436
O      13.18824      1.79997      0.50939         0.342475      0.128188      0.158583
O      13.16315      1.80160     13.24519         0.263899      0.146908      0.010872
O      13.10703     13.30294      0.50925         0.351397     -0.500470      0.800018
O      13.27223     13.24014     13.30934        -0.240625      0.249071     -0.625651
O       1.94010      1.88219      4.62824        -0.027946      0.068005     -0.737337
O       1.92077     13.15848      4.58151        -0.005469     -0.072126     -0.970967
O      13.33508      1.82356      4.60727        -0.181429     -0.036173      0.200224
O      13.19579     13.37101      4.60128        -0.289185     -0.716219      0.788313
O       1.98874      1.80524      8.94872        -0.377256      0.045813     -0.239584
O       1.90154     13.35657      8.87483        -0.157840     -0.118220      0.467998
O      13.42751      1.92893      8.89809        -0.381215     -0.246627      0.149032
O      13.35078     13.28434      8.85137        -0.335562      0.097490     -0.445930
O       1.85031      5.60762      0.39537         0.110097     -0.129552      0.620434
O       1.81568      5.61800     13.25783         0.121583     -0.011982     -0.380465
O      13.34192      5.74605      0.56211        -0.223859     -0.278502     -0.094236
O      13.20468      5.80187     13.12598         0.232688     -0.534631      1.073331
O       1.98249      5.68796      4.63599        -0.110287     -0.278810     -0.258920
O      13.36132      5.66108      4.74415         0.141059      0.490429     -0.741830
O       1.93879      5.76896      9.09728        -0.103266     -0.106082     -0.667481
O      13.37157      5.56973      8.92205         0.352425      0.773734      0.529987
O       1.84188      9.25825      0.40509         0.129393      0.764848      0.071057
O       1.69804      9.46218     13.29962         0.169861      0.193259     -0.425073
O      13.23600      9.43752      0.63951         0.225159      0.395036     -0.359712
O      13.39734      9.47119     13.26497        -0.320852      0.390743     -0.719849
O       1.99859      9.44652      4.60895        -0.253018      0.408473     -0.041911
O      13.34518      9.45799      4.59611         0.235036     -0.174784      1.286626
O       1.85467      9.68343      8.99023         0.397660     -0.796401     -0.031234
O      13.45501      9.50563      8.99186        -0.291882     -0.000231     -1.861071
O       5.75747      1.74388      0.31117        -0.193978      0.347673     -0.418587
O       5.70382      1.93981     13.15487        -0.405213     -0.298126      0.346930
O       5.72597     13.20528      0.23174        -0.247470      0.082944      1.421071
O       5.59827     13.38474     13.23454         0.279681     -0.498592     -0.331971
O       5.85455      2.01602      4.74419        -0.346595     -0.182039      0.552320
O       5.84185     13.04951      4.67601        -0.202657      0.554875      0.734461
O       5.77553      1.80898      8.98396        -0.309000     -0.186961      0.425964
O       5.58779     13.23967      8.92314         0.575617      0.544522     -0.986644
O       5.73821      5.58967      0.29024        -0.081769      0.083761     -0.114254
O       5.61140      5.61072     13.28011         0.342189      0.072506     -0.335336
O       5.83243      5.55330      4.79927        -0.677223      0.290620      1.282678
O       5.61824      5.68508      9.08292        -0.044687      0.413351      0.376977
O       5.58181      9.33828      0.16048         0.122797      0.498955      1.379338
O       5.72037      9.33449     13.11364         0.012787      0.591421      0.422027
O       5.70288      9.51511      4.71130         0.399343     -0.311423      0.679541
O       5.58811      9.35525      8.96287         0.271515      0.270393      0.873385
O       9.49822      2.08685      0.50740        -0.210243     -0.642371      0.467424
O       9.54643      1.91525     13.10565        -0.045695     -0.197318      0.319469
O       9.37805     13.11968      0.36162         0.204855      0.334314      0.057440
O       9.33061     13.41336     13.35006         0.693451     -0.579963      0.184395
O       9.53462      1.93068      4.79880        -0.483911     -0.530138      1.000762
O       9.32670     13.31061      4.81961         0.257342     -0.031296      0.165500
O       9.59102      2.03527      8.94098        -0.704923     -0.546361      0.071512
O       9.39765     13.13968      8.95854         0.368833      0.354056     -0.332387
O       9.57507      5.59463      0.51953        -0.353546      0.144042     -0.861230
O       9.72202      5.71569     13.09988        -0.477130      0.233259      0.297444
O       9.63170      5.78907      4.80558        -0.932950     -0.419651      1.262557
O       9.59707      5.61643      8.96184        -0.082714      0.363902     -0.510907
O       9.47991      9.27147      0.36025         0.216110      0.662292      0.870331
O       9.47821      9.33590     13.11590        -0.052708      0.390719      1.294134
O       9.46848      9.30657      4.57590        -0.077541      0.344446      1.399628
O       9.51989      9.61829      9.01923         0.550133      0.093776      0.490716
O       3.87573      1.69462      2.74145        -0.852073      0.365350     -0.920724
O       3.79256      1.84058     15.38919        -0.797273     -0.357551     -0.646930
O       3.86160     13.22332      2.57790        -0.212915     -0.338190     -0.767858
O       3.70032     13.38181     15.27018         0.436761     -0.723392      0.099251
O      15.19543      1.73780      2.66059         0.089003      0.029664     -0.609856
O      15.10299      1.83361     15.33390        -0.633509     -0.287380      0.133238
O      15.12728     13.14657      2.52356         0.470477      0.181216      0.177096
O      15.07194     13.30510     15.37011        -0.068361      0.307991      0.230920
O       3.80127      1.82826      6.79678         0.413464      0.503313      0.005432
O       3.86733     13.24801      6.75810        -0.024360     -0.217142      0.029063
O       0.07512      1.91399      6.74204        -0.497815     -0.100473     -0.091512
O      15.15915     13.25875      6.63616         0.258990      0.097675      0.079054
O       3.74402      1.91843     11.18744         0.771897     -0.463478     -0.409325
O       3.79397     13.31166     11.02611        -1.320696      0.336608      0.306978
O      15.14906      1.96596     11.05546         0.912890     -0.875361      0.263862
O      15.08146     13.35629     11.08591         1.636346      0.208156     -0.136884
O       3.93627      5.61163      2.59955        -2.476774     -0.180720      0.176882
O       3.73970      5.59675     15.40649         0.174255     -0.454176     -0.381743
O       0.05797      5.63364      2.42648        -0.431511     -0.121445      0.927462
O      15.14806      5.77019     15.34756        -0.069639     -0.532477      0.266484
O       3.79052      5.61028      7.00107         0.015229      1.055205     -0.712008
O       0.12299      5.74731      6.90388        -0.589831     -0.190360     -0.108402
O       3.74671      5.83149     11.30193         0.897318     -0.949968     -0.241373
O      15.16282      5.75428     11.24455         0.256213     -0.099677     -0.238313
O       3.83118      9.37163      2.53659         0.343710      0.056940     -0.274826
O       3.68128      9.58030     15.12745         0.991344      0.109229      0.596279
O       0.02122      9.45920      2.64020         0.155738     -0.113305     -0.036969
O      15.11721      9.54138     15.46493         0.070812     -0.374942     -0.025373
O       3.81956      9.51203      6.84888         0.399139      0.151036      0.085626
O       0.12682      9.68087      6.77545        -1.012102     -0.967515     -0.142075
O       3.73518      9.55109     11.20006         1.431625     -0.154525      0.096693
O       0.04086      9.51947     11.17313        -0.028663     -0.258570     -0.012989
O       7.53450      1.98977      2.72557         0.644898     -0.641618     -0.779892
O       7.60490      1.91768     15.26895         0.380161     -0.025234      0.097966
O       7.56081     13.16885      2.59537         0.314869      0.295865     -0.379649
O       7.59838     13.30958     15.34940        -0.895531     -0.282476      0.126759
O       7.58363      1.96999      7.02134         1.004317     -0.196317     -0.033334
O       7.54814     13.27184      6.97788         0.938771      0.227241      0.109446
O       7.58851      1.94862     11.22338         0.177235     -0.297734     -1.033717
O       7.54300     13.17529     11.21769         0.380668      1.012903     -0.908051
O       7.60282      5.49262      2.63038        -0.466161      0.345783     -0.161867
O       7.67322      5.70847     15.33195        -1.272540     -0.108404     -0.321189
O       7.59896      5.52536      7.09438        -0.041777      0.705088     -0.597418
O       7.58286      5.73085     11.16021         0.145941      0.072974     -0.244102
O       7.57710      9.33463      2.38208        -0.417811      0.062236      0.011695
O       7.51766      9.24645     15.35972         1.141355      0.369746     -0.386495
O       7.69675      9.44466      6.93371        -0.560952     -0.183543     -0.238101
O       7.56219      9.48296     10.98442         0.232550     -0.159543      0.362456
O      11.33554      1.86221      2.67381         0.565466     -0.535974     -0.053613
O      11.30406      1.90353     15.39115         0.687839      0.316705      0.030018
O      11.28185     13.29533      2.71462        -0.410918     -0.344264     -0.416550
O      11.33707     13.21703     15.51579        -0.940999     -0.508311     -0.242081
O      11.43615      1.86383      6.80444         0.337744     -0.145259      0.349006
O      11.42795     13.33302      6.98296        -1.097042     -0.370594     -0.476315
O      11.34175      1.86669     11.00802         0.695646      0.172116      0.037912
O      11.37817     13.19336     11.15048        -0.109190      0.380345     -0.669239
O      11.36999      5.74043      2.64014         1.332241     -0.454969      0.129832
O      11.44875      5.67478     15.42579        -0.217038      0.105551     -0.240418
O      11.51269      5.81952      6.91460        -0.750971      0.064665      0.106026
O      11.47658      5.60253     10.99705        -0.588669      0.624080     -0.099621
O      11.39057      9.35654      2.54485        -1.328224      0.186221      0.311357
O      11.32163      9.50967     15.32550         0.568045      0.053442     -0.001063
O      11.49782      9.41233      6.72983        -0.729991      0.089697      0.503653
O      11.45558      9.65494     11.19588         0.321282     -0.694773     -0.472308
O       1.95072      3.64105      2.61558         0.087268      0.429566     -0.334378
O       1.79659      3.69858     15.36335        -0.113989      0.351393     -0.193735
O       1.91641     15.05450      2.63996        -0.018455     -0.001090     -0.207105
O       1.79380     15.19079     15.31515         0.029897     -0.097457      0.399284
O      13.31194      3.73472      2.67290         0.064927      0.051678     -0.283670
O      13.25153      3.82811     15.33807         0.424903     -0.831569     -0.178024
O      13.28892     15.09665      2.64973        -0.269791      0.383398     -0.255376
O      13.00624     15.18056     15.43629         0.949000      0.415911     -0.177530
O       1.95753      3.82009      6.82191        -0.400128     -0.249344     -0.254376
O       2.02208     15.09861      6.65887        -0.619879      1.154490      0.418427
O      13.36533      3.83115      6.77378         0.109333     -0.995883      0.097876
O      13.26571     15.18175      6.80763         0.318977      0.076205     -0.017418
O       1.88030      3.82517     11.03649         0.079060     -0.994351      0.401346
O       1.96087     15.18117     11.00364        -0.477010      0.298959      0.440065
O      13.36413      3.83665     11.11207        -0.405084     -0.964580     -0.143517
O      13.21217     15.16512     11.13091         0.075486      0.492534     -0.774809
O       1.95031      7.47705      2.61942        -0.060958     -0.039440     -0.097947
O       1.95366      7.52726     15.29207        -0.779227      0.916604     -0.385985
O      13.34746      7.56184      2.64039         0.411839     -1.001530      0.417582
O      13.24295      7.64557     15.36680         0.018017     -0.125712      0.033610
O       1.97221      7.61114      6.67725        -0.170984      0.090135      0.705766
O      13.44053      7.63061      6.91420         0.430133      0.261208     -0.027639
O       1.91325      7.57229     11.13250        -0.306473      1.883445      0.175663
O      13.32716      7.64692     11.06883        -0.471712     -0.446491     -0.019771
O       1.89033     11.30015      2.45263         0.311565      0.082134     -0.032807
O       1.77692     11.42115     15.36872        -0.080012      0.347975      0.036354
O      13.19477     11.32723      2.79270        -0.007843      0.882456     -0.442706
O      13.24783     11.41376     15.50394        -0.382182     -0.508923     -0.254461
O       1.99482     11.42758      6.81755         0.025060     -0.190607     -0.009465
O      13.29016     11.31678      6.75955        -0.316719      1.290999     -0.121184
O       1.89150     11.46088     11.06561        -0.166972      0.570775      0.363798
O      13.39575     11.38329     11.09003        -0.463258      0.905061      0.093957
O       5.60357      3.66748      2.42616        -0.031040     -0.380684      0.157851
O       5.64001      3.75127     15.39303         0.276492     -0.101526     -0.278085
O       5.71834     15.10674      2.38375         0.560308     -0.938726      0.529668
O       5.77866     15.19010     15.23949        -0.227246     -0.611283      0.200526
O       5.64284      3.78121      7.04386         0.015575     -0.105162     -0.209844
O       5.69799      0.00726      6.71954         0.560997     -0.878964      0.410890
O       5.65728      3.76029     11.05703        -0.039802      0.489856      0.216380
O       5.74250     15.19548     11.03852        -0.104855     -0.014173      0.127585
O       5.71222      7.39107      2.39154         0.325725      1.887737      0.465167
O       5.47672      7.56975     15.25920         0.118199     -0.797842     -0.232268
O       5.68435      7.58565      6.92512         0.263071     -1.063290     -0.065871
O       5.65966      7.58933     11.15757        -0.143951      0.204597     -0.052404
O       5.68665     11.26336      2.46348         0.460214      0.073897     -0.743294
O       5.74736     11.34749     15.40714        -0.636997     -0.044986     -1.169342
O       5.82286     11.29144      6.93474        -0.340238      1.204426     -0.117041
O       5.70407     11.44541     11.12017        -0.555502     -0.688747     -0.059163
O       9.59909      3.79055      2.81804        -0.347077     -0.482126     -0.485794
O       9.51897      3.83130     15.38739        -0.198734     -0.857691     -0.674021
O       9.41303     15.16625      2.67612        -0.113814     -0.276482     -0.656474
O       9.53143      0.01559     15.52200        -0.335456     -0.044684     -0.680595
O       9.76501      3.82934      6.79021        -0.726701      0.006457      0.018719
O       9.52173     15.19836      6.89735        -0.273241     -0.240740      0.527047
O       9.49522      3.90574     11.13300        -0.073386     -1.859193     -0.244390
O       9.39621     15.11075     11.01121         0.185683      1.617099     -0.206105
O       9.47421      7.45383      2.67166        -0.394141      1.602162     -0.437940
O       9.57408      7.43901     15.41458        -0.062566      2.443205     -0.109401
O       9.53139      7.58916      7.02383        -0.078803     -0.130000     -0.153129
O       9.59577      7.65580     11.00520         0.047798     -0.510986      0.112367
O       9.49410     11.32021      2.53198         0.161859      0.275841      0.000407
O       9.33927     11.28847     15.24456         0.062197      0.228799      0.304054
O       9.54491     11.35212      6.73806         0.137656      0.056983      0.246448
O       9.46540     11.38838     11.24675        -0.004459      0.971006      0.121815
