  # total energy = -7878.60386272 
CRSYTAL
PRIMVEC
    15.6000000000000000    0.0000000000000000    0.0000000000000000
     0.0000000000000000   15.6000000000000000    0.0000000000000000
     0.0000000000000000    0.0000000000000000    17.640000000000000
PRESSURE
-5.3652 -5.56388 3.21606 0.00498 -0.04299 0.01447
PRIMCOORD
320 1
Pb       3.84265      3.82962      4.39317         0.107122      0.349284     -1.149588
Pb       3.87716      3.88902     17.61113         0.369656      0.285382     -0.802260
Pb       3.87873     15.57513      4.36247         0.039257      0.077438     -0.792039
Pb       3.86282     15.56748     17.59169        -0.099188      0.087818     -0.811225
Pb       0.00467      3.87193      4.40265        -0.037333      0.430617     -1.235760
Pb      15.58850      3.89805     17.62780        -0.323792      0.141309     -0.871198
Pb      15.56679     15.56868      4.36565        -0.049097     -0.264852     -1.006473
Pb      15.54219      0.00349     17.59318         0.325136     -0.009808     -0.907413
Pb       3.86365      3.90181      8.79954         0.224723     -0.085527     -0.713122
Pb       3.86011      0.00434      8.77157         0.099306     -0.054134     -0.587183
Pb      15.57643      3.88987      8.75803         0.022471      0.062670     -0.351532
Pb      15.59752     15.59232      8.78199        -0.165554     -0.325232     -0.295324
Pb       3.88503      3.80264     13.21975         0.433835      0.098444     -0.901091
Pb       3.85660     15.56688     13.20029         0.008894     -0.029500     -0.933209
Pb      15.57858      3.83628     13.19450        -0.172358      0.499620     -0.711807
Pb      15.58173      0.03198     13.18344         0.143743     -0.353997     -0.584564
Pb       3.88206      7.80295      4.40186        -0.034046     -0.211634     -1.198074
Pb       3.91391      7.79586     17.60758        -0.238587     -0.278040     -0.847992
Pb      15.58883      7.85696      4.39658         0.254645     -0.227509     -0.605132
Pb      15.59929      7.80698     17.59476        -0.108804     -0.112418     -0.920095
Pb       3.89285      7.82378      8.81521        -0.465195     -0.194543     -0.727667
Pb      15.57898      7.78784      8.81007        -0.047585      0.079112     -0.564026
Pb       3.89135      7.79022     13.17742        -0.650115     -0.051275     -0.506324
Pb       0.00372      7.82367     13.20148         0.167895     -0.451560     -1.035811
Pb       3.88188     11.66662      4.38831         0.447358     -0.159442     -1.083905
Pb       3.89713     11.65927     17.60457         0.205776      0.196457     -0.925196
Pb      15.55164     11.61774      4.34016        -0.216342      0.163932     -0.499239
Pb      15.57362     11.65732     17.57774        -0.330516      0.252520     -0.687132
Pb       3.86109     11.64013      8.77426         0.378841      0.206285     -0.568560
Pb      15.56585     11.69892      8.81552        -0.061542      0.200764     -1.200261
Pb       3.87589     11.70100     13.19701        -0.101794     -0.070253     -1.072103
Pb      15.55586     11.65517     13.20041         0.230900      0.253634     -0.957785
Pb       7.81031      3.81563      4.41622        -0.075616      0.150330     -0.529917
Pb       7.78720      3.86220     17.60000        -0.191274     -0.044592     -0.952882
Pb       7.76052     15.55032      4.36391        -0.097111     -0.150819     -0.905023
Pb       7.77660     15.57305     17.63041         0.061867      0.359568     -0.857078
Pb       7.76359      3.88578      8.77938        -0.220563      0.193381     -0.542259
Pb       7.79567     15.58374      8.75517        -0.241873     -0.117870     -0.328296
Pb       7.86418      3.90027     13.17018        -0.287774      0.111612     -0.971947
Pb       7.78456      0.00565     13.22648         0.040641     -0.378173     -1.233182
Pb       7.83254      7.78350      4.38005        -0.266911     -0.169047     -0.269057
Pb       7.78675      7.82882     17.62347         0.117363     -0.220295     -0.808969
Pb       7.76878      7.79759      8.78060         0.423182     -0.265463     -0.751875
Pb       7.78163      7.83472     13.15359        -0.063657     -0.410984     -0.791557
Pb       7.80805     11.69053      4.39388        -0.275090      0.036957     -0.877431
Pb       7.78418     11.68777      0.00006        -0.098099     -0.135449     -0.893253
Pb       7.80360     11.68535      8.84716        -0.188960      0.146520     -0.694412
Pb       7.78662     11.70080     13.20541        -0.156954      0.339138     -1.037675
Pb      11.67010      3.88263      4.40975        -0.088879     -0.123399     -0.893775
Pb      11.74848      3.86389     17.61096        -0.045160      0.152322     -0.828332
Pb      11.62790     15.53270      4.40400         0.137548      0.299856     -1.192585
Pb      11.62552     15.55144     17.61850        -0.095830      0.023313     -0.812545
Pb      11.63388      3.88647      8.78858         0.118095      0.045794     -0.779908
Pb      11.71997      0.00975      8.76427         0.047739      0.081726     -0.511023
Pb      11.71718      3.88785     13.21065        -0.051455      0.132190     -0.816489
Pb      11.68561     15.58269     13.19341        -0.089556     -0.362511     -0.754367
Pb      11.71214      7.76738      4.34191        -0.283363     -0.340682     -0.373545
Pb      11.70726      7.76347     17.58475        -0.154767      0.056831     -0.842894
Pb      11.64856      7.78472      8.75581        -0.003614     -0.155576     -0.328140
Pb      11.70347      7.76733     13.21576         0.235421     -0.049931     -1.096083
Pb      11.69161     11.67266      4.33031         0.036281      0.134826     -0.479986
Pb      11.72990     11.63696     17.55346        -0.159436      0.041380     -0.363605
Pb      11.69727     11.64639      8.72388        -0.170808      0.242693     -0.382155
Pb      11.66088     11.65396     13.13980        -0.105453      0.171544     -0.676890
Ti       1.94534      1.95092      2.31174         0.079309     -0.141418      2.608418
Ti       1.89678      1.99228     15.56459        -0.106663     -0.580521      1.747420
Ti       1.92660     13.66621      2.30318         0.023995      0.105485      2.405132
Ti       1.92914     13.65021     15.54807        -0.337966      0.127139      2.222838
Ti      13.68649      1.92251      2.27902        -0.965187      0.024358      2.437374
Ti      13.57394      1.89416     15.60344         0.559914      0.172390      1.864722
Ti      13.63584     13.57252      2.31595         0.088249      0.398369      1.138291
Ti      13.60883     13.60105     15.57458         0.385192      0.580291      0.227566
Ti       1.85144      1.90250      6.71675         0.746687      0.436453      2.467824
Ti       2.00182     13.63492      6.76141        -0.935523      0.438544      1.707594
Ti      13.66567      1.90627      6.67018        -1.045224      0.530303      3.125699
Ti      13.61544     13.65536      6.67264         0.440971     -0.443691      1.658312
Ti       1.95769      1.91726     11.10654        -0.164742     -0.056252      1.650510
Ti       1.90864     13.66106     11.08622        -0.120159     -0.606006      1.533326
Ti      13.61068      1.86233     11.14773         0.246621      0.851020      2.331755
Ti      13.61984     13.63820     11.12693        -0.080116     -0.202534      2.138284
Ti       1.88675      5.89984      2.21451         0.659239     -0.178240      2.759810
Ti       1.90131      5.81424     15.57595        -0.113365      0.782123      1.236871
Ti      13.57100      5.83229      2.24926         0.408481     -0.679462      2.322479
Ti      13.57959      5.85037     15.53328         0.315329     -0.385956      1.487866
Ti       1.92357      5.89263      6.70661        -0.400532     -0.024849      2.618971
Ti      13.63204      5.83167      6.78141        -0.412121      0.130927      2.675415
Ti       1.99745      5.75002     11.11742        -1.162154      1.159156      2.276712
Ti      13.64058      5.82267     11.15595         0.432256      0.382295      1.836314
Ti       1.91484      9.79003      2.31152         0.217323     -0.984967      2.249178
Ti       1.89260      9.74734     15.54878         0.216572     -0.386984      1.679089
Ti      13.55882      9.67035      2.39696         0.468007      0.401443      0.939282
Ti      13.60338      9.73089     15.53004         0.273256     -0.252440      2.071943
Ti       1.98247      9.76517      6.71912        -0.947627     -0.579559      2.373518
Ti      13.58693      9.70103      6.73262         0.883645      0.313234      0.980561
Ti       1.91698      9.71706     11.08182         0.084337     -0.393835      2.443485
Ti      13.61760      9.75843     11.13673        -0.070926     -0.620810      1.803178
Ti       5.82623      1.96708      2.33020        -0.001460     -0.590160      2.611503
Ti       5.78468      1.94327     15.47091         0.513579      0.169832      2.611345
Ti       5.79572     13.63282      2.31499         0.330529     -0.503062      2.355015
Ti       5.88014     13.67124     15.54902        -0.448331     -0.200283      1.813965
Ti       5.79782      1.90539      6.72733         0.416109      0.076900      2.486674
Ti       5.82430     13.62055      6.72959         0.421456     -0.139358      2.233907
Ti       5.86854      1.88699     11.09603         0.020745      0.895301      3.214412
Ti       5.75243     13.65736     11.09516         0.882039     -0.250609      3.041479
Ti       5.87036      5.81385      2.29803        -1.193890     -0.209758      1.876684
Ti       5.83815      5.86661     15.58556        -0.631692     -0.476311      1.908134
Ti       5.72807      5.86156      6.71805         1.051689     -0.522401      3.015834
Ti       5.78385      5.91727     11.12415         1.207907     -1.698144      0.935422
Ti       5.87265      9.67774      2.28638        -0.592441      0.440758      2.903530
Ti       5.77692      9.69447     15.52832         0.658559      0.644057      2.775065
Ti       5.87331      9.69697      6.75051        -0.092681      0.753526      1.682422
Ti       5.82321      9.70476     11.15027        -0.272991      0.958143      2.106957
Ti       9.72496      1.94684      2.34518         0.486876     -0.084440      2.065195
Ti       9.70695      1.94015     15.50274        -0.292518     -0.169236      2.838018
Ti       9.75930     13.62023      2.26097        -0.122625      0.181467      2.762727
Ti       9.71773     13.64878     15.55091         0.472658     -0.238173      1.966089
Ti       9.71546      1.89433      6.75426         0.154592      0.914295      2.267514
Ti       9.70564     13.64039      6.74148         0.120259     -0.390082      1.760700
Ti       9.75329      1.91173     11.13900        -0.397616     -0.297132      1.695805
Ti       9.71928     13.60721     11.09032        -0.202527      0.085210      2.189479
Ti       9.67764      5.86239      2.29188         0.502353     -0.786134      2.559465
Ti       9.64232      5.82550     15.52419         0.902023     -0.332003      0.431515
Ti       9.67285      5.86952      6.71742         0.182655     -0.001143      2.775360
Ti       9.73154      5.83653     11.10801        -0.677705      0.054325      2.318166
Ti       9.72318      9.74283      2.32602        -0.291731     -0.261846      2.403296
Ti       9.65786      9.71412     15.54661         0.894719      0.449417      2.567143
Ti       9.75371      9.78543      6.70643        -0.627988     -0.692092      2.987814
Ti       9.70006      9.69356     11.16671         0.381298      0.409716      1.876822
O       1.90788      1.84707      0.65058         0.361565      0.346186     -2.900403
O       1.78732      2.02709     13.86881         0.273291     -0.081073     -2.279257
O       1.86165     13.64108      0.64145         0.071854     -0.016488     -2.850558
O       2.03058     13.63226     13.87825         0.115646     -0.059465     -2.703726
O      13.64444      2.05444      0.58800        -0.214853     -0.115091     -1.785094
O      13.53826      1.87620     13.90557         0.274795     -0.028562     -2.027761
O      13.62061     13.44675      0.60847         0.226499      0.225696     -1.429309
O      13.65603     13.67055     13.86152        -0.141278     -0.127387     -1.494846
O       1.91491      1.96553      5.02288        -0.339922     -0.352842     -1.836976
O       1.91567     13.64062      5.06715         0.042256     -0.002823     -1.971086
O      13.64691      1.92381      4.98182         0.443352     -0.037137     -2.055916
O      13.60885     13.65830      4.94871         0.180973      0.204066     -1.359239
O       1.88735      1.98360      9.41826         0.408636     -0.410730     -1.773393
O       1.90513     13.71819      9.37564        -0.063307     -0.177670     -1.566748
O      13.54113      1.95284      9.49862        -0.043069     -0.070766     -2.923666
O      13.72881     13.69712      9.45311        -0.267085     -0.249144     -2.308570
O       1.87570      5.83961      0.51446         0.257163      0.087542     -1.825224
O       1.91993      5.78244     13.89272         0.122010     -0.190099     -2.373759
O      13.66016      5.75971      0.56459        -0.319686      0.013000     -2.224062
O      13.56949      5.89674     13.82260        -0.217678     -0.054018     -1.398736
O       1.93709      6.03405      5.02705        -0.017827     -0.469803     -1.869879
O      13.66793      5.87954      5.11148         0.020340     -0.270825     -2.404409
O       1.92191      5.80640      9.43847         0.116484      0.228608     -2.198224
O      13.65192      5.93656      9.46662         0.041440     -0.227081     -1.686164
O       1.91929      9.67219      0.63541        -0.046497      0.233679     -2.385767
O       1.90820      9.76934     13.87786         0.026962      0.004127     -2.602610
O      13.68738      9.81044      0.71437        -0.251632     -0.211565     -2.053931
O      13.60170      9.71079     13.83851         0.001032      0.108075     -1.846305
O       1.84091      9.59132      5.03035         0.315001      0.472649     -1.844363
O      13.56134      9.74831      4.98979        -0.013818     -0.225862     -0.826282
O       1.98868      9.54171      9.39089         0.017089      0.395573     -1.885192
O      13.62806      9.59654      9.44980         0.005770      0.495521     -1.928495
O       5.83045      1.94076      0.65416        -0.073364      0.170985     -2.442726
O       5.77699      1.96351     13.78866        -0.122342      0.061530     -2.094028
O       5.94755     13.54502      0.64253        -0.116781      0.179790     -2.526427
O       5.90932     13.67573     13.85904        -0.437887     -0.009896     -1.484137
O       5.86907      1.79986      5.04554        -0.238338      0.167214     -1.970362
O       5.89330     13.68203      5.02776        -0.130345     -0.204975     -1.790205
O       5.87103      2.02411      9.43253        -0.074563     -0.411129     -2.564003
O       5.87070     13.63322      9.43098        -0.070991     -0.044824     -2.476042
O       5.82496      5.74808      0.58039         0.199682      0.024775     -1.141596
O       5.79865      5.85249     13.90196         0.130162      0.085450     -2.046019
O       5.74023      5.74230      5.06975        -0.191704     -0.056761     -2.839086
O       5.90870      5.82536      9.40857        -0.507343      0.541751     -1.214032
O       5.85907      9.82598      0.59892         0.089472     -0.279432     -1.765490
O       5.92592      9.65045     13.85686        -0.236046      0.037549     -2.106449
O       5.86909      9.83143      5.08172        -0.274055      0.106567     -2.536089
O       5.92946      9.77980      9.46573        -0.469199     -0.281160     -2.354877
O       9.69576      1.80418      0.66458        -0.037578      0.430134     -2.209090
O       9.74887      1.95452     13.82930         0.164670     -0.300426     -2.413530
O       9.77363     13.64004      0.57985        -0.269704      0.116709     -2.308389
O       9.77315     13.57638     13.87385        -0.185239      0.163358     -2.198721
O       9.82738      2.10911      5.09454        -0.292725     -0.288078     -2.593340
O       9.82104     13.65087      5.04246        -0.182262     -0.108745     -1.697551
O       9.72398      1.86719      9.45036         0.040454      0.049577     -2.148423
O       9.73870     13.47960      9.39722        -0.116448      0.247187     -1.838722
O       9.67896      5.71483      0.61037        -0.142427      0.204876     -1.932936
O       9.63495      5.72119     13.77088         0.037399      0.574139     -0.278653
O       9.70213      5.87201      5.04217         0.228124     -0.207653     -2.211330
O       9.60387      5.89781      9.43316         0.254319     -0.008588     -2.119299
O       9.76686      9.69074      0.65530        -0.265319     -0.015374     -2.510175
O       9.69582      9.80802     13.86451         0.049322     -0.420649     -2.060090
O       9.78309      9.77366      5.03807         0.072423      0.147190     -2.666971
O       9.72022      9.62182      9.49632        -0.122544      0.365410     -2.677036
O       3.90659      1.87707      2.83797         0.121174      0.238441     -0.008603
O       3.83985      2.05393     15.93690        -0.047472     -0.284873      0.231798
O       3.85507     13.67057      2.64469         0.659232     -0.269575      0.543637
O       3.89195     13.72224     16.07615         0.102851     -0.703991      0.120264
O      15.57283      1.82145      2.61572         0.254275      0.475803      0.873187
O       0.04343      1.84099     16.10842        -1.045321      0.670961     -0.017006
O      15.59274     13.50871      2.72082         0.119932      0.502893      0.571672
O      15.58825     13.63543     15.87494        -0.145523     -0.301850      0.793722
O       3.86145      1.78093      7.16797        -0.190511      0.712668     -0.071377
O       3.88381     13.74016      7.12797        -0.088753     -0.125866      0.234761
O      15.54711      1.93042      7.24284         0.020211      0.076719     -0.500250
O      15.48859     13.63734      7.18523         0.654713     -0.047633      0.075802
O       3.91421      1.90918     11.61178        -0.487778      0.105530      0.156275
O       3.82734     13.61508     11.50800         0.327068      0.032753      0.539051
O       0.04748      1.85290     11.45632        -0.756490      0.300988      0.866894
O       0.01955     13.59893     11.57233        -0.515194     -0.008001      0.402650
O       3.92347      5.74267      2.67869        -0.580644      0.417432      0.336796
O       3.88272      5.90651     15.96524        -0.104085     -0.551013      0.626631
O       0.06057      5.71414      2.54483        -0.936944      0.384911      0.839953
O      15.45876      5.76408     15.88548         0.875352      0.508033      0.659739
O       3.83823      5.82833      7.24606        -0.006048     -0.149029     -0.049800
O      15.57220      5.88722      7.15473         0.109285     -0.215829      0.289332
O       3.86925      5.93883     11.49332         0.248293     -0.512453      0.427497
O      15.57786      5.87367     11.57128         0.148364     -0.651803      0.338461
O       3.91656      9.64822      2.75381        -0.271264      0.296181      0.240720
O       3.92256      9.76882     15.94779        -0.585134     -0.333847      0.403428
O      15.49059      9.64789      2.74665         1.119100      0.601585      0.559182
O      15.55881      9.70316     15.95205         0.028950      0.219325      0.502644
O       3.86294      9.83667      7.11776         0.101188     -0.475064      0.422070
O       0.00859      9.72968      7.15111        -0.217621      0.218483      0.259003
O       3.87875      9.64920     11.56984         0.110542      0.699534      0.185404
O      15.58927      9.74504     11.53013        -0.074805      0.299385      0.327735
O       7.78002      1.93108      2.78147         0.219216      0.233616      0.344660
O       7.77339      1.88059     15.87079        -0.334640      0.085724      0.464632
O       7.88689     13.59121      2.76246        -0.566465     -0.055942      0.200041
O       7.78001     13.77701     15.94672        -0.460374     -0.568990      0.458600
O       7.77842      1.98416      7.05537        -0.041717     -0.324103      0.550659
O       7.79218     13.55439      7.17656        -0.227331      0.335222      0.033148
O       7.77647      1.86228     11.59107         0.078683      0.183973      0.252280
O       7.76784     13.69055     11.61360         0.271883     -0.529463      0.076170
O       7.70680      5.87879      2.75667         0.971954     -0.667530      0.170171
O       7.78678      5.93217     15.99185        -0.241005     -0.201887      0.316885
O       7.77572      5.92767      7.02521        -0.390221     -0.292166      0.617350
O       7.74118      5.95505     11.45220         0.364357     -0.221055      1.004616
O       7.76631      9.68173      2.83678         0.192856      0.347932     -0.237081
O       7.82260      9.70694     16.01248        -0.499944     -0.337297      0.248338
O       7.75034      9.73651      7.08733         0.319437      0.206129      0.535060
O       7.70964      9.78194     11.56674         0.782951     -0.289381      0.511198
O      11.65930      1.94239      2.76436         0.258965      0.024967      0.174220
O      11.67582      1.86793     16.00523        -0.475854      0.349566      0.341676
O      11.74203     13.62686      2.62263        -0.776343     -0.081802      0.826941
O      11.67460     13.70614     15.87255        -0.160583     -0.351875      0.845285
O      11.68094      1.94892      7.05863         0.142917     -0.483968      0.729972
O      11.69108     13.60251      7.05737        -0.191089      0.284462      0.752078
O      11.66207      1.94236     11.51043         0.007453     -0.499450      0.707064
O      11.66108     13.60117     11.48354         0.229689      0.401203      0.489482
O      11.68441      5.84215      2.64227        -0.140526      0.283165      0.285428
O      11.60316      5.79958     15.91133         0.376879     -0.090745      0.558040
O      11.69491      5.86530      7.16836        -0.352181      0.042878      0.271744
O      11.64383      5.81993     11.49501         0.363909      0.321677      0.527396
O      11.58262      9.64755      2.72177         0.926280     -0.010484      0.560444
O      11.75527      9.79271     16.01510        -0.954278     -0.461143      0.174946
O      11.67755      9.64221      7.21364        -0.072678      1.066900     -0.045184
O      11.69086      9.73522     11.55352         0.025037     -0.328124      0.517883
O       1.95234      3.85547      2.77298        -0.046064      0.064773      0.176869
O       1.80856      3.93142     15.89058         0.454714     -0.727386      0.957395
O       2.06183      0.01449      2.69816        -0.899412     -0.640904      0.703119
O       1.84758     15.59151     15.89264         0.773571      0.073815      0.624326
O      13.60738      3.92262      2.76812         0.339820     -0.549968      0.280302
O      13.63630      3.84883     15.92873        -0.375711     -0.043930      0.476044
O      13.61654     15.58020      2.66752         0.254720     -0.267510      0.303348
O      13.63022     15.57370     15.93621         0.100214     -0.102528      0.902195
O       1.84112      3.85146      7.07930         0.351534      0.281631      0.202086
O       1.84313     15.58522      7.19652         0.061549     -0.002995     -0.059811
O      13.57596      3.86133      7.31850         0.485246      0.123177     -0.655570
O      13.64630      0.04190      7.24465        -0.331008     -0.456425     -0.474507
O       1.91646      3.85027     11.36899         0.339923      0.108569      1.181285
O       1.93497     15.53101     11.58241         0.199613      0.628567      0.312322
O      13.56079      3.84394     11.64925         0.559193      0.310466      0.091351
O      13.65443     15.57118     11.48287        -0.277624     -0.072405      0.877349
O       1.87702      7.82194      2.74702         0.255877     -0.566187      0.014327
O       1.93153      7.77593     15.88677        -0.246517      0.270896      0.908029
O      13.59744      7.73561      2.74042         0.128357     -0.067518      0.207363
O      13.62903      7.77562     16.01059        -0.358606      0.170249      0.241186
O       1.96167      7.78258      7.17039         0.248806      0.333165      0.304264
O      13.57414      7.84676      7.16807         0.445966     -0.623667      0.116026
O       1.97979      7.77013     11.60743        -0.464379      0.189133      0.255833
O      13.76919      7.82362     11.61431        -1.087673     -0.387200      0.377630
O       2.06109     11.66425      2.67030        -0.530294     -0.016464      0.597577
O       1.93988     11.65857     15.81408         0.073146      0.376249      1.190246
O      13.63003     11.60849      2.75163        -0.316668      0.491866      0.801646
O      13.62333     11.67924     15.97222         0.207645     -0.125157      0.275590
O       1.97916     11.73633      7.17647        -0.266231     -0.409348      0.190522
O      13.63126     11.70399      7.05193        -0.251330     -0.392542      0.658376
O       1.91018     11.63467     11.43874         0.318383      0.328664      0.427765
O      13.54766     11.72428     11.48748         0.601226     -0.614996      0.456736
O       5.82039      3.81790      2.81871         0.205127      0.458880      0.034075
O       5.81886      3.87804     15.98230         0.243244      0.231259      0.304508
O       5.91336     15.50766      2.72375        -0.142780      0.572344      0.344824
O       5.71766      0.04508     15.93259         0.259706     -0.295192      0.336450
O       5.84768      3.87233      7.24200        -0.505239     -0.050048     -0.297829
O       5.86762     15.55451      7.25816         0.169858      0.316594      0.004199
O       5.85731      3.93770     11.44022        -0.337997     -0.170760      0.905924
O       5.81458     15.57414     11.51957        -0.214647      0.076864      0.354812
O       5.84452      7.74285      2.79251        -0.094848      0.331612     -0.267265
O       5.82277      7.77134     16.11263         0.145701      0.564379     -0.039571
O       5.77403      7.80213      7.03171        -0.299606     -0.182689      0.622409
O       5.80249      7.81782     11.63920         0.201031     -0.057222     -0.040885
O       5.81655     11.66777      2.70604         0.035621     -0.068701      0.709869
O       5.84697     11.64109     15.92042         0.170944      0.775308      0.384438
O       5.75006     11.74015      7.20152         0.078871     -0.235098      0.197323
O       5.84021     11.75584     11.57627        -0.367527     -0.835169      0.443863
O       9.81549      3.96163      2.83706        -0.818298     -0.617087     -0.005514
O       9.61233      3.87894     15.85448         0.212327     -0.170157      0.726138
O       9.72179      0.00300      2.74033         0.284965     -0.401855      0.469355
O       9.68887     15.57878     16.00429         0.358582      0.210233      0.190353
O       9.75127      3.90188      7.28525        -0.203191      0.077260     -0.230717
O       9.64527     15.55220      7.17580         0.450121      0.143028     -0.010426
O       9.70704      3.84309     11.54256        -0.223994      0.451804      0.177489
O       9.69512     15.50987     11.48582         0.431642      0.697374      0.600141
O       9.65545      7.70362      2.83011         0.299817      0.882707     -0.157202
O       9.82216      7.75914     16.08773        -0.404161      0.446695     -0.387872
O       9.68616      7.87865      7.14657         0.143880     -0.743928      0.228266
O       9.70933      7.80898     11.51731         0.093489     -0.440461      0.903481
O       9.76901     11.65796      2.72155        -0.036760      0.112613      0.158933
O       9.67522     11.66192     15.98529         0.114286      0.268977      0.360769
O       9.64701     11.67872      7.23798         0.811959     -0.199419     -0.108723
O       9.80301     11.62707     11.55926        -0.611878      0.530173      0.405682
