  # total energy = -7867.08639747 
CRSYTAL
PRIMVEC
    15.010000000000000    0.0000000000000000    0.0000000000000000
     0.0000000000000000   15.010000000000000    0.0000000000000000
     0.0000000000000000    0.0000000000000000    16.400000000000000
PRESSURE
18.0498 18.2161 8.67847 -0.173277 -0.185459 -0.005377
PRIMCOORD
320 1
Pb       3.89791      3.80852      4.26635        -1.019682     -0.449558     -1.155173
Pb       3.70650      3.73346      0.03515         0.285248     -0.019684     -0.271747
Pb       3.67360      0.04097      4.12406         0.317353     -0.319959     -0.096790
Pb       3.72691     14.91322     16.39671         0.490212      0.435009      0.181264
Pb      14.94743      3.70593      4.09743         0.193605      0.352053     -0.395359
Pb      15.00551      3.62610     16.33937        -0.374154      0.568156      0.988696
Pb      14.97544      0.00956      4.16749         0.294932     -0.345510     -0.552643
Pb      14.96589     14.90012      0.10840        -0.219867      0.343066     -0.009683
Pb       3.63764      3.78298      8.23360         0.062411     -0.421596      0.236812
Pb       3.62895     14.95257      8.09891         0.787556      0.710256      0.813693
Pb      14.90810      3.81480      8.31444        -0.157481     -0.495776     -0.399106
Pb      14.89713     14.96098      8.15183        -0.270840      0.694195      0.725776
Pb       3.58591      3.73486     12.30631         0.190891      0.207992      0.889508
Pb       3.68767     14.93642     12.38751         0.240325      0.753784     -0.412440
Pb      14.96612      3.71856     12.41087         0.302274      0.172754      0.029594
Pb      15.00564     14.95329     12.38385        -0.426284      0.067488     -0.578695
Pb       3.82583      7.39898      4.13551        -0.055327      0.876924     -0.559801
Pb       3.74055      7.41928      0.08715         0.048991      0.382184     -0.407693
Pb      15.00924      7.48312      4.15736        -0.004694      0.023179     -0.564711
Pb      14.95946      7.51128     16.39354         0.252976     -0.365054      0.105532
Pb       3.76606      7.49392      8.05562        -0.084983      0.357064      0.883906
Pb      14.98247      7.51376      8.31644        -0.445711     -0.241086      0.355978
Pb       3.69923      7.59733     12.27894         0.084023     -0.201365      0.122826
Pb      14.93821      7.42090     12.36352         0.195257      0.355806      0.110175
Pb       3.76465     11.23351      4.33737         0.126130     -0.268773     -0.858620
Pb       3.76857     11.15689     16.30137         0.180806      0.002068      0.757209
Pb       0.11018     11.21362      4.10741        -0.134603      0.058586     -0.233679
Pb      14.98885     11.30579      0.03631        -0.088955     -0.491308      0.187490
Pb       3.84554     11.26646      8.14039        -0.325608     -0.083621      0.992587
Pb       0.01590     11.26763      8.21512        -0.031817     -0.102975      0.814447
Pb       3.76964     11.33482     12.26842        -0.289496     -0.420979      0.038282
Pb       0.02768     11.28609     12.35075        -0.162033     -0.384305     -0.413500
Pb       7.48377      3.67233      4.06551        -0.059560      0.203343     -0.599908
Pb       7.49720      3.70624     16.33967        -0.688964      0.248063      0.057035
Pb       7.47583     14.90817      4.13074         0.032216      0.416562     -0.335002
Pb       7.37244     14.99630      0.00744        -0.044500     -0.156585     -0.126526
Pb       7.40143      3.67350      8.12972         0.508571      0.337644      1.386781
Pb       7.52778      0.16987      8.11765        -0.242914     -0.958551      0.922295
Pb       7.38553      3.77815     12.30893         0.232843     -0.345869     -0.356951
Pb       7.47989     14.88988     12.39215         0.136199     -0.048992     -0.657666
Pb       7.49310      7.53628      4.06255         0.376118     -0.272197     -0.136136
Pb       7.49033      7.55115     16.34658         0.430181     -0.285470      0.154751
Pb       7.44891      7.48169      8.29716         0.327380      0.201523      0.105083
Pb       7.47039      7.53160     12.35733        -0.198369      0.289936     -0.175825
Pb       7.69438     11.26271      4.17171        -0.373379     -0.610449     -0.075476
Pb       7.53891     11.22963     16.37418        -0.102966     -0.118072     -0.351397
Pb       7.56979     11.33015      8.08167        -0.073470     -0.467914      1.659747
Pb       7.47215     11.21134     12.23243         0.542154      0.597089      0.346616
Pb      11.09843      3.78160      4.09974         0.640021      0.263187     -0.334782
Pb      11.25222      3.65168     16.36269         0.041924      0.599458     -0.058789
Pb      11.27583     15.00612      4.12196        -0.182569     -0.711268     -0.210819
Pb      11.16330     14.91287      0.09941         0.225783      0.014767     -0.137305
Pb      11.14813      3.73906      8.14334         0.750440     -0.161726      1.129513
Pb      11.15582      0.06313      8.18525         0.772595     -0.194083      0.798417
Pb      11.22461      3.70245     12.38386        -0.154468     -0.116877      0.013935
Pb      11.23610      0.11166     12.38955        -0.269343     -0.803104     -0.476369
Pb      11.40473      7.48285      4.17659        -0.881654     -0.124164     -0.660605
Pb      11.27800      7.51593      0.03295        -0.445887     -0.405959     -0.182280
Pb      11.22972      7.47675      8.20498        -0.195468     -0.339394      1.095726
Pb      11.33975      7.47460     12.29785        -0.417510      0.078859      0.369926
Pb      11.46082     11.13037      4.12836        -0.803549      0.361445     -0.568914
Pb      11.39115     11.11260     16.37793        -0.685161      0.542820      0.782387
Pb      11.28007     11.22654      8.24838        -0.204541      0.409117      0.554984
Pb      11.27306     11.27706     12.26300        -0.985276      0.091727      0.538205
Ti       1.88058      1.88222      2.08290        -0.377935      0.474849      0.239083
Ti       1.85592      1.82166     14.52115         0.211953      0.380866     -0.938113
Ti       1.94167     13.07746      2.12235        -0.543399     -0.048979      0.450238
Ti       1.79496     13.13719     14.49191         0.537617     -0.724630     -0.857048
Ti      13.04143      1.87547      2.13021         0.763557      0.589161     -0.887601
Ti      13.08318      1.81765     14.53078        -0.414487      0.046948      0.219316
Ti      13.12953     13.15072      2.14415        -0.784545     -0.651730      0.878823
Ti      13.01541     13.11350     14.44050         1.118362     -0.763177     -0.710647
Ti       1.80885      1.87157      6.27401         0.294139      0.409897      0.195901
Ti       1.90133     13.06249      6.32950        -0.103197      0.845253     -0.201011
Ti      13.14734      1.88038      6.11530        -0.422286     -0.114481      0.753705
Ti      13.17643     13.08100      6.24356        -1.044278      0.524575     -1.097049
Ti       1.82995      1.91640     10.26683        -0.039345     -1.439512      0.238463
Ti       1.86322     13.16952     10.33429        -0.710318     -1.135580     -0.532415
Ti      13.13879      1.89380     10.40527        -0.899176     -2.136895     -2.020555
Ti      13.04480     13.11075     10.29449         0.119160      1.389888      0.453660
Ti       1.79921      5.62462      2.13074        -0.474552     -0.628554     -1.113578
Ti       1.84747      5.64125     14.50700        -0.185873     -0.543388     -0.803184
Ti      13.08920      5.66536      2.04642         0.695416     -1.300668     -0.343219
Ti      13.12798      5.62006     14.42037        -0.764033     -0.132498      0.112275
Ti       1.80345      5.60780      6.20139        -0.725787     -0.741225      0.451567
Ti      13.07340      5.59041      6.26985         1.182877     -0.261203     -0.876811
Ti       1.81842      5.65577     10.34923        -0.592283     -0.166460      0.908080
Ti      13.04970      5.55825     10.33592        -0.026949      1.519150     -0.198479
Ti       1.95558      9.36186      2.01670         0.477207     -0.241795      1.788004
Ti       1.88995      9.37752     14.40415        -0.616773     -0.309617     -0.736383
Ti      13.22033      9.36661      2.16818        -0.574906      0.161643     -0.840508
Ti      13.15831      9.35023     14.42783         0.229776     -0.113234     -1.096430
Ti       1.81388      9.28065      6.26318         0.614009      1.363888     -0.591823
Ti      13.13041      9.30858      6.31667         0.430499      0.330296     -0.967502
Ti       1.83047      9.37469     10.23980        -0.560450      1.688761      0.846300
Ti      13.04669      9.38726     10.36450         0.883260     -0.507632      0.143193
Ti       5.55539      1.82700      2.11636         0.319356     -0.120897     -0.581519
Ti       5.52511      1.93135     14.31440         0.379650     -0.858633      0.781822
Ti       5.64065     13.00841      2.14713        -0.659501      0.960618     -0.117963
Ti       5.55749     13.09998     14.44821         1.464243      0.346521     -0.290270
Ti       5.62595      1.91731      6.19432        -0.053714     -2.210516     -0.024123
Ti       5.71335     13.14253      6.18260        -0.488545      0.493326      0.208301
Ti       5.52995      1.88774     10.33569         0.334172     -0.569606     -0.489846
Ti       5.57798     13.19275     10.24392         1.152050      0.668523     -0.097698
Ti       5.55284      5.59748      2.02877         0.786195      0.217806      0.268138
Ti       5.59679      5.70594     14.36536        -0.722596     -1.362440      0.575004
Ti       5.60552      5.58165      6.28174         0.819880     -0.127830     -1.199445
Ti       5.53066      5.61969     10.34000         0.873992      0.403807      0.395874
Ti       5.68082      9.40626      2.11705        -0.996066     -1.144816     -0.590301
Ti       5.65747      9.37999     14.36630        -0.927592      0.152294      0.093680
Ti       5.68760      9.33368      6.22406        -0.271515      0.697002      0.580593
Ti       5.52906      9.47104     10.27566         1.391189     -0.782209     -0.296284
Ti       9.32102      1.78596      2.02453        -0.568783      0.123026      0.599206
Ti       9.25294      1.84178     14.41095         0.881526     -0.379667     -0.867694
Ti       9.29667     13.05018      2.04580         2.214815      0.002098     -0.146013
Ti       9.36742     13.10408     14.48112        -0.661518     -0.286215     -0.879606
Ti       9.40728      1.81634      6.15730         0.220126     -0.328909     -0.070078
Ti       9.49520     13.04938      6.18313         0.024392      0.932984      0.027478
Ti       9.36805      1.94373     10.37935        -0.181603     -0.493820      0.647824
Ti       9.36850     13.16442     10.28720        -0.458549     -0.629829      0.716197
Ti       9.29401      5.62105      2.05296         1.006215      0.605359      0.164917
Ti       9.35225      5.56389     14.28047         0.297596      0.994016      1.087242
Ti       9.31276      5.60901      6.24297         1.379090      1.465149      0.018361
Ti       9.29139      5.69234     10.33837         0.400747     -1.146168     -0.230632
Ti       9.37658      9.38013      2.09541         0.996961     -0.460614     -0.235934
Ti       9.45480      9.33671     14.40081        -2.003061      0.206626     -1.339989
Ti       9.44004      9.35465      6.28466        -1.241534     -0.897902     -1.318968
Ti       9.30520      9.33998     10.35125        -0.137020      1.422921      0.815187
O       1.97819      1.89289      0.26257        -0.168993     -0.424133      0.780620
O       1.94557      1.83262     12.68005        -0.773274     -0.219983     -0.235195
O       1.86499     13.12712      0.32339        -0.034255     -0.011055      0.015774
O       1.83368     13.12958     12.62339         0.010461      0.019634      0.635169
O      12.93580      1.77887      0.22970         0.199794      0.165995      0.882151
O      13.13021      1.81625     12.72679         0.109628      0.393157     -1.032709
O      13.09062     13.14410      0.36665         0.313739     -0.099482     -1.635382
O      13.03556     13.03497     12.62654         0.351664      0.182884      0.449718
O       1.70069      1.94582      4.50256         0.337912     -0.618794     -0.768949
O       1.81878     13.04501      4.52528        -0.007890      0.286009     -0.914903
O      13.08742      1.97809      4.28405         0.348707     -0.463529      0.192240
O      13.18391     13.02735      4.35438        -0.139254      0.264272      0.741025
O       1.80482      1.95271      8.47688         0.102879     -0.102839     -0.244328
O       1.93961     13.07913      8.46158        -0.250638      0.351826      1.161223
O      13.02500      1.75217      8.52322         0.384074      0.355823      0.764217
O      13.08497     13.23892      8.46653         0.004310     -0.599022      0.090383
O       1.68390      5.51600      0.22174         0.471447      0.351845      1.492733
O       1.80587      5.59626     12.63339         0.096259     -0.057364     -0.043394
O      13.18748      5.57667      0.20680        -0.509601      0.630326      0.578841
O      13.01109      5.68941     12.59067         0.460901     -0.900541     -0.880060
O       1.98875      5.68094      4.43643        -0.505309     -0.181519     -0.584899
O      13.10090      5.62350      4.41744        -0.266081     -0.016459      0.454846
O       1.76251      5.57880      8.56055         0.119379      0.259584     -0.369908
O      13.10900      5.68175      8.50900         0.556981     -0.213796     -0.035708
O       1.98202      9.37741      0.26159        -0.377231     -0.219249     -0.633516
O       1.80500      9.39417     12.54999         0.175341      0.072491      1.222187
O      13.18289      9.25083      0.26281        -0.622598      0.262165      0.943186
O      13.08385      9.39984     12.58542         0.337497      0.090795      0.272600
O       1.73849      9.30849      4.44279         0.335957      0.074043      0.738690
O      13.22535      9.26350      4.36820        -0.304328      0.430693      1.140217
O       1.86760      9.41341      8.41915        -0.035838     -0.502171      0.310092
O      13.06173      9.42810      8.50709         0.020800     -0.375382     -0.238306
O       5.44545      1.86532      0.28052         0.368134     -0.448334      1.022764
O       5.48162      1.88462     12.52820         0.258203     -0.078203     -0.327117
O       5.67341     13.08593      0.30015        -0.328322      0.166769      0.851305
O       5.67608     13.08353     12.61570        -0.433224      0.190024      0.501932
O       5.72035      1.84198      4.38014        -0.165993      0.540516      0.293793
O       5.57385     13.04215      4.39113         0.382199      0.251363      0.140050
O       5.60070      1.83865      8.48068         0.177968      0.382156      0.274090
O       5.57762     13.17599      8.42611        -0.072382     -0.048697      0.298823
O       5.40946      5.58927      0.23261         1.086697      0.401901      0.485302
O       5.61009      5.61188     12.58038        -0.415581      0.044497     -0.081149
O       5.64897      5.53257      4.38837        -0.251758     -0.161474      0.857371
O       5.70737      5.57839      8.50775        -0.613467      0.177598     -0.474371
O       5.58289      9.29671      0.28526         0.012807      0.117822      0.470899
O       5.57135      9.48337     12.56673        -0.047342     -0.387938     -0.315546
O       5.74834      9.33890      4.47188        -0.140670      0.250181     -0.785000
O       5.51773      9.34039      8.40278         0.106358     -0.104980      0.764218
O       9.35315      1.86772      0.20648        -0.023531      0.210066      0.603111
O       9.38349      1.98180     12.55804        -0.517982     -0.672716      0.868215
O       9.29786     13.02715      0.21556         0.083154      0.266153      0.912588
O       9.33266     13.17122     12.67951        -0.274950     -0.100864     -0.060699
O       9.33123      1.68544      4.37202         0.151623      0.675928      0.323501
O       9.43766     13.09216      4.39032         0.019597     -0.155838     -0.291384
O       9.45350      1.88929      8.54071        -0.245606      0.060199     -0.565119
O       9.48025     13.05971      8.49060        -0.381530      0.029938     -0.405869
O       9.39783      5.64332      0.26795        -0.118842     -0.512089      0.200380
O       9.35737      5.67405     12.48645        -0.098377     -0.173245      0.546063
O       9.45772      5.76749      4.44872        -0.200865     -0.494123     -0.071694
O       9.29133      5.65212      8.50860         0.011578     -0.290027     -0.050646
O       9.35182      9.34751      0.24791         0.224461     -0.098035      0.110983
O       9.29287      9.21993     12.53954        -0.106886      0.469772      1.481520
O       9.32387      9.37829      4.42259         0.219127     -0.230878      0.939094
O       9.37073      9.45079      8.55836         0.180603     -0.229041     -0.832995
O       3.72314      1.96577      2.60053         0.195594     -0.473463     -0.150839
O       3.72697      1.88904     14.65741        -0.823708      0.204443      0.336025
O       3.77038     13.16335      2.48046        -0.385568     -0.217308     -0.108210
O       3.72223     12.95155     14.78567        -0.434302      0.339782     -0.521869
O       0.02188      1.92182      2.27219        -1.064647     -0.387340      0.241822
O      14.94983      1.65751     14.83834         0.152099     -0.010157     -0.292364
O      15.00376     13.02879      2.35041         0.858785      0.321519      0.244335
O      14.98416     13.22642     14.68732        -0.781239     -0.145765      0.387007
O       3.82661      1.77391      6.41193        -1.924393     -0.244731      0.063939
O       3.77051     13.34401      6.44546         0.004397     -0.020915     -0.274825
O      14.95339      1.95017      6.54593        -0.222723      0.139323     -0.093362
O      14.99447     13.09367      6.59314         0.448010     -0.714769     -0.196781
O       3.64337      1.61368     10.42404         0.569213      0.327330      0.619709
O       3.71926     13.19141     10.73478        -0.325486      0.237129     -0.589487
O      14.97831      1.98123     10.64923         0.020667     -0.040363      0.347714
O      14.91045     12.97981     10.68219         0.751500      0.206521     -0.439308
O       3.71718      5.61822      2.33848         0.027697      0.058718      0.349081
O       3.68671      5.53262     14.77033         0.292587     -0.290731     -0.474980
O      14.94918      5.56500      2.50149         0.650630      0.147934     -0.032959
O      14.92511      5.76484     14.61044         1.294120     -0.207852     -0.010460
O       3.70461      5.70073      6.52008         0.415427     -0.259091      0.091020
O      14.96749      5.33016      6.48417         0.413260      0.792501     -0.094220
O       3.67553      5.69185     10.57670        -0.561706      0.544050      0.004933
O      14.94524      5.42430     10.65857         0.618320      0.236096     -0.057472
O       3.79921      9.23620      2.54067        -0.661304      0.531642     -0.233846
O       3.71376      9.46503     14.65644         0.146275      0.055791     -0.167977
O       0.06058      9.38216      2.41407        -0.411711      0.143794     -0.343312
O      14.98818      9.20843     14.76217         0.660385      0.345355     -0.399322
O       3.74243      9.17185      6.38226        -0.268287     -0.187197      0.045846
O      14.95177      9.62874      6.53703         0.810356     -0.274075     -0.053522
O       3.73348      9.35704     10.64225        -1.051216     -0.195744     -0.290460
O      14.91351      9.64273     10.56572         0.572059     -0.480809     -0.416614
O       7.45750      1.84737      2.38490         0.228923      0.370487     -0.146749
O       7.40253      1.71651     14.76077         0.154666     -0.047900     -0.360303
O       7.51061     12.98280      2.51008        -0.924725     -0.213740     -0.203542
O       7.47246     13.24691     14.78841        -0.593977      0.033197     -0.436421
O       7.53274      1.95872      6.54206         0.811571      0.544684     -0.342526
O       7.58920     12.93861      6.51834        -0.696088      0.109316     -0.807041
O       7.45613      2.02168     10.56621         0.052613     -0.015115     -0.032478
O       7.44726     13.00362     10.53633         0.215482      0.759911      0.104003
O       7.48146      5.60118      2.29780        -0.532528     -0.181364      0.291362
O       7.43469      5.64921     14.70111         0.281237      0.432603      0.010256
O       7.54611      5.39644      6.46620        -1.636054     -0.026467     -0.113265
O       7.41685      5.48198     10.61326        -0.294478     -0.254110     -0.077517
O       7.53730      9.54501      2.41494        -0.363428     -0.295317      0.021385
O       7.43200      9.23365     14.69755         1.278005     -0.236118     -0.083806
O       7.51935      9.51888      6.54944        -0.362322     -0.002437     -0.091690
O       7.42534      9.53070     10.59044        -0.837182     -0.592606     -0.342694
O      11.18915      1.71263      2.41794        -0.483035      0.361875     -0.253603
O      11.14197      1.98005     14.64459         0.976714      0.381919      0.005787
O      11.19666     13.17443      2.26331         0.145488      0.659873      0.520094
O      11.24119     12.88499     14.72551        -0.509063      0.010013      0.361190
O      11.31772      1.62725      6.44618        -1.837107      0.629271     -0.338812
O      11.30446     13.26627      6.50157        -0.359965     -0.155529     -0.175056
O      11.21741      1.73492     10.65622         0.517196      0.937045      0.231189
O      11.18667     13.21266     10.67722         0.928353     -0.584333     -0.166443
O      11.28734      5.69879      2.33413        -1.297242     -0.100027      0.203655
O      11.19734      5.45063     14.57274        -0.317153     -0.239378      0.454891
O      11.31322      5.87275      6.55552        -1.863706     -0.312682     -0.200839
O      11.22846      5.90139     10.41028        -0.718030     -0.263402      0.633167
O      11.24598      9.26144      2.46976         0.891880     -0.177639     -0.281349
O      11.23081      9.44268     14.57946         0.866055      0.052624      0.650912
O      11.25527      9.01500      6.44236         0.718846      0.832388     -0.252084
O      11.14160      9.20497     10.69441         1.099011      0.168141     -0.693878
O       1.87642      3.76421      2.47708         0.043114     -0.081547     -0.112920
O       1.67492      3.66145     14.75548         0.169122      0.829330     -0.715200
O       1.89185      0.00742      2.40990        -0.125235     -0.418826      0.255416
O       1.92302     14.96876     14.80877         0.240329     -0.481877     -0.118698
O      13.04547      3.71865      2.25359        -0.221258      0.373253      0.314807
O      13.26242      3.76906     14.67717        -0.291525     -1.644573     -0.047741
O      13.10351     15.00374      2.32693         0.689745      0.340964      0.790796
O      12.94793     14.91184     14.68309        -0.114783      0.917903      0.327014
O       1.88854      3.74505      6.56160         0.836623      0.140166     -0.109559
O       1.68657      0.01020      6.60189         0.577373     -0.178562     -0.556132
O      12.95251      3.71803      6.55899        -0.230219      0.052835     -0.201518
O      13.18319     14.99481      6.26931         0.877232      0.008590      0.159164
O       1.98179      3.71304     10.63266        -0.253303      0.898661     -0.239274
O       1.66999     14.97256     10.58696        -0.101344      0.278361      0.025397
O      12.98184      3.72989     10.49887        -0.415317      0.309822      0.694021
O      13.07390      0.00096     10.60964         0.873724     -0.575062      0.551822
O       1.86835      7.49012      2.29503        -0.287068     -0.521125      0.311516
O       1.90604      7.45428     14.68811         0.298384      1.399113      0.132778
O      13.19808      7.51251      2.33853         0.093485     -0.505127      0.222481
O      13.02184      7.47637     14.55033        -0.638113      0.583099      0.834855
O       1.62758      7.48138      6.55917         0.020432     -0.592452      0.062445
O      13.38654      7.47436      6.56295         0.155736      0.402703     -0.268205
O       1.66156      7.59136     10.61909         0.220140     -1.886992     -0.257947
O      13.29635      7.50237     10.65827        -0.214078      0.293013     -0.480667
O       1.91904     11.18145      2.40756         0.151059      1.208617      0.193485
O       1.70489     11.24190     14.86107         0.242777     -0.017597     -0.850907
O      13.00022     11.24945      2.32548         0.346501     -0.918493      0.181931
O      13.21620     11.15980     14.84205         0.220991      1.380245     -0.233230
O       2.12015     11.24735      6.59509        -0.797938     -0.718701     -0.856052
O      12.93502     11.24194      6.50106        -0.028579     -0.758468     -0.095785
O       1.90911     11.22347     10.55495         0.240947      1.071368      0.270313
O      12.88298     11.25731     10.61358         0.059150     -0.228370     -0.573669
O       5.68204      3.72358      2.30612        -0.350278      0.480666      0.508575
O       5.63926      3.71152     14.73345         0.194769      1.027649     -0.268248
O       5.63303     14.95398      2.50023        -0.081904     -0.034627     -0.468755
O       5.44250     15.00528     14.61179         0.063562     -0.742100      0.292992
O       5.53088      3.70822      6.58109        -0.085028      0.846556     -0.230233
O       5.90064     15.00646      6.48515        -0.522210      0.092031     -0.515907
O       5.28952      3.73973     10.72928         0.749367      0.101889     -0.991307
O       5.66344      0.03554     10.61347         0.236510     -0.784420      0.253394
O       5.63879      7.53666      2.42097         0.508278     -1.513859      0.022094
O       5.42492      7.51834     14.62534        -0.005364     -0.347849      0.164925
O       5.72485      7.38853      6.33604         0.321556      1.133218      0.878175
O       5.59198      7.51247     10.64366         0.244701      0.125862     -0.404242
O       5.54838     11.18570      2.46256        -0.271164      1.129242      0.078590
O       5.71178     11.19394     14.75495        -0.175440      1.067665     -0.036711
O       5.33845     11.29993      6.42413         0.898093     -1.154713     -0.164555
O       5.53459     11.33471     10.55489        -0.602337     -0.955208     -0.101748
O       9.37114      3.69848      2.53714         0.082284      0.294260     -0.714247
O       9.11006      3.71265     14.59582         0.350422      0.553679      0.211200
O       9.15193     14.94767      2.27781         0.591936      0.040005     -0.016097
O       9.50705     14.98088     14.68885        -0.270063      0.465723      0.111167
O       9.66943      3.75704      6.41243        -0.616268     -0.776045     -0.553659
O       9.23445     14.93121      6.39120         0.107456      0.939267      0.532583
O       9.50039      3.80640     10.72140         0.005480     -0.113626     -0.734670
O       9.44036     14.96507     10.73717        -1.565062      1.308303     -0.539096
O       9.25432      7.52486      2.32484         0.052075     -0.885223      0.095801
O       9.44364      7.45672     14.70416        -0.238453     -0.271830      0.014110
O       9.16623      7.51215      6.68969         0.106537     -0.407062     -0.580409
O       9.03409      7.50039     10.65626         0.321030     -0.058184     -0.950296
O       9.60475     11.21648      2.36859        -0.843855      0.408063      0.301704
O       9.17636     11.21111     14.66700         0.136711     -0.577157     -0.113123
O       9.59666     11.19513      6.52707        -0.026742      0.077526     -0.065246
O       9.35745     11.25863     10.73703         0.610262     -0.222940     -0.501625
