  # total energy = -7882.81808484 
CRSYTAL
PRIMVEC
    15.3600000000000000    0.0000000000000000    0.0000000000000000
     0.0000000000000000   15.3600000000000000    0.0000000000000000
     0.0000000000000000    0.0000000000000000    17.440000000000000
PRESSURE
1.70447 1.22282 -1.50149 0.409816 0.24335 -0.017382
PRIMCOORD
320 1
Pb       3.93632      3.78164      4.33673        -0.398554     -0.221672     -0.028071
Pb       3.83521      3.79831     17.41242        -0.066384      0.070174      0.381928
Pb       3.81328      0.01494      4.36605         0.004592     -0.139167      0.238550
Pb       3.86322     15.31420     17.30843        -0.671002     -0.153180      0.594118
Pb       0.04514      3.85412      4.30793        -0.032861     -0.136753     -0.344368
Pb      15.34763      3.76547     17.39925        -0.437532     -0.012913      0.759805
Pb       0.02474      0.00608      4.37012         0.075671     -0.167518     -0.259130
Pb      15.28103      0.09450     17.33990         0.648061     -0.560704      0.674983
Pb       3.74859      3.91191      8.59477        -0.152709     -0.213070      1.440659
Pb       3.70367     15.25779      8.70561        -0.040997      0.943093      0.803027
Pb      15.21565      3.89303      8.68568         0.874182     -0.311431      0.544597
Pb      15.31385     15.27329      8.69310         0.200459      0.077215      0.520814
Pb       4.03473      3.73660     12.96916        -1.108727      0.527501      0.570877
Pb       3.85247     15.34523     12.97547        -0.333497     -0.171213     -0.350280
Pb       0.00872      3.78729     13.00896        -0.000442      0.224989      0.160866
Pb      15.26553     15.20914     13.00179         0.291558      1.251454      0.526238
Pb       3.86194      7.70166      4.29797        -0.115700     -0.023873      0.410243
Pb       3.78106      7.70710      0.01827         0.308162     -0.310175      0.078228
Pb       0.01989      7.62338      4.26832         0.036047      0.136957      0.333132
Pb       0.14141      7.67930      0.03247        -0.587944     -0.132536     -0.287372
Pb       3.71917      7.63302      8.63091         0.513421      0.325628     -0.020527
Pb      15.18464      7.69316      8.67484         0.977851      0.253978      0.199391
Pb       3.88124      7.60390     13.10068        -0.243209      0.178910      0.107461
Pb       0.00453      7.68603     13.02954        -0.768587     -0.211071     -0.169825
Pb       3.83231     11.47197      4.37587         0.088381      0.502231      0.133814
Pb       3.76368     11.49538     17.39358         0.387390      0.367839     -0.363622
Pb       0.04754     11.55289      4.22525        -0.043017      0.150398      0.899422
Pb      15.23716     11.44243      0.03718         0.021614      0.461243     -0.304433
Pb       3.84300     11.43204      8.69420        -0.241767      0.350515      0.233679
Pb       0.02993     11.51566      8.70959         0.066746      0.015409     -0.428525
Pb       3.84935     11.36889     12.90867         0.489810      0.599262      0.704292
Pb       0.06538     11.40536     13.01594        -0.736571     -0.140845      0.252716
Pb       7.65121      3.82154      4.19658        -0.217726     -0.125230      1.311173
Pb       7.70168      3.74139      0.04485         0.351531      0.418804     -0.499521
Pb       7.63394     15.27120      4.36100         0.346764      0.158217      0.875045
Pb       7.54025     15.30476     17.41603         0.225458     -0.028523     -0.368616
Pb       7.49515      3.91147      8.58371         0.557844      0.270152      1.024680
Pb       7.65473      0.11948      8.69339         0.052681     -0.336020      0.456653
Pb       7.69321      3.84483     12.99742         0.135785     -0.397806     -0.257493
Pb       7.71622     15.35369     12.93367        -0.277423      0.158674      0.139312
Pb       7.69195      7.67322      4.30693         0.076584      0.003769      0.279859
Pb       7.58223      7.67074      0.00318         0.226582     -0.008336     -0.019127
Pb       7.74421      7.63092      8.71715        -0.380873      0.287673     -0.206514
Pb       7.71142      7.67464     13.13287         0.438577      0.437902     -0.045472
Pb       7.64424     11.38655      4.33185        -0.059820      0.385387      0.115212
Pb       7.53492     11.62333     17.23875        -0.233666     -0.646415      0.643189
Pb       7.83790     11.51664      8.76809        -0.949534     -0.097222     -0.423911
Pb       7.68407     11.62440     12.95871         0.017082     -0.635146      0.658291
Pb      11.53235      3.72333      4.26609         0.097110     -0.186058      0.852987
Pb      11.54628      3.83367      0.09876        -0.547876     -0.125802     -0.610304
Pb      11.64754     15.32955      4.35747        -0.341313     -0.129515      0.000621
Pb      11.30884     15.29280      0.00366         0.424003      0.292440      0.163926
Pb      11.55106      3.82637      8.60152        -0.376362      0.009637      0.508054
Pb      11.42886      0.05539      8.66049         0.177546     -0.158935      0.268058
Pb      11.44822      3.79028     13.00107         0.253643      0.619533      0.630902
Pb      11.39795     15.29447     13.12194         0.391066      0.319737     -0.254040
Pb      11.57094      7.52206      4.29238        -0.204455      0.776720      0.487435
Pb      11.37786      7.74636     17.39362         0.599713     -0.829871      0.557750
Pb      11.58203      7.70086      8.62086        -0.180718     -0.471077      0.257967
Pb      11.41909      7.55006     13.16411         0.917756      0.421350     -0.534922
Pb      11.43197     11.52489      4.23524         0.627728      0.113599      0.366637
Pb      11.44423     11.53208     17.36670         0.476774      0.185780      0.817184
Pb      11.34830     11.41008      8.72268         1.050684      0.498882     -0.103722
Pb      11.58544     11.47989     13.07061        -0.004347     -0.517489      0.000668
Ti       1.93137      1.89028      2.35454        -0.307147     -0.315717     -0.578362
Ti       1.93825      1.95343     15.39276        -1.523469     -0.807061      0.687901
Ti       1.98165     13.39520      2.23288        -0.410474      0.883278      1.212885
Ti       1.89529     13.47647     15.28237         0.064932     -0.076324      0.057811
Ti      13.43956      1.89076      2.29616         0.445569     -0.425902      0.154135
Ti      13.31928      1.87948     15.43746         0.354792     -0.022515      0.123460
Ti      13.50489     13.40454      2.36055        -0.904178      0.350704     -1.642142
Ti      13.45344     13.38185     15.48798         0.067043      0.345996     -0.327081
Ti       1.85809      1.98115      6.72193         0.333342     -0.468087      0.775109
Ti       1.93300     13.51414      6.70011        -1.259391     -1.097625     -0.380236
Ti      13.47919      1.85945      6.69742        -1.011249     -0.011401     -0.533667
Ti      13.37288     13.40685      6.76391         0.364741     -0.370010     -1.433951
Ti       1.85827      1.97634     11.02623        -0.208084     -0.451843     -1.352405
Ti       1.89658     13.41968     11.13876         0.376195      1.051746     -0.571128
Ti      13.36798      1.92532     11.03861         0.375426     -0.575203     -1.152484
Ti      13.42593     13.45481     11.13405        -0.390359     -0.415897     -1.325973
Ti       1.93727      5.78063      2.32455        -0.494830     -0.739703     -1.056701
Ti       1.88361      5.69578     15.49687        -0.168583      1.274813     -0.927768
Ti      13.40401      5.71014      2.37653         0.741880      0.079236     -0.965307
Ti      13.38987      5.69347     15.56643        -0.679294      0.558486     -1.453303
Ti       1.85509      5.78944      6.66570         0.284136      0.499928      0.818329
Ti      13.48830      5.68025      6.63928        -0.904804      0.879283     -0.851833
Ti       1.92576      5.83633     11.01208        -1.121878     -1.280771     -1.042883
Ti      13.44677      5.67574     11.01673        -0.619481      1.916807     -0.387798
Ti       1.98006      9.61188      2.27051         0.245801     -0.241761      0.265010
Ti       1.97100      9.62724     15.40265        -0.269104      0.119452      0.672325
Ti      13.49920      9.64267      2.32447        -0.330206     -0.035065      0.075047
Ti      13.42779      9.52013     15.46339         0.415467      0.223124     -0.136456
Ti       1.98886      9.64924      6.56559        -1.321766     -0.090588      2.045446
Ti      13.47309      9.61681      6.63420         0.400768      0.166870     -0.159335
Ti       1.99531      9.57333     11.01278        -1.073119     -0.046425     -1.847241
Ti      13.41069      9.57576     10.99510        -0.395724     -0.556984      2.074008
Ti       5.78342      1.88741      2.34260        -1.360694     -0.271466      0.319749
Ti       5.70262      1.84603     15.36929         1.059431      0.782832     -1.520275
Ti       5.66871     13.47905      2.36014         0.651523     -0.278840     -0.557813
Ti       5.70160     13.37703     15.22377         0.042898     -0.286966     -0.246452
Ti       5.69655      1.91459      6.79097        -0.425564      0.391254     -2.068243
Ti       5.71527     13.48480      6.86111         0.229108     -0.635174     -0.228606
Ti       5.70990      1.92190     10.97835         0.590003     -0.192680     -0.694125
Ti       5.77182     13.39910     10.96026        -0.426588      0.284617     -0.709123
Ti       5.69966      5.77627      2.38510         0.477869     -0.138958      0.607315
Ti       5.72665      5.69978     15.41940         0.251367      0.000716      0.598054
Ti       5.63511      5.77769      6.58583         0.822112      1.235534      0.308519
Ti       5.73028      5.83387     11.07178         0.317681     -0.182018     -2.406001
Ti       5.78188      9.67037      2.34841        -0.618809     -0.537579     -0.544240
Ti       5.71878      9.50178     15.41610         1.233101      0.708509     -0.362319
Ti       5.76498      9.64493      6.71094         0.189344     -0.819487      0.838824
Ti       5.81412      9.51749     10.93794        -0.374135      0.626823     -1.217376
Ti       9.51587      1.87741      2.40593         1.412608     -1.014455     -1.438940
Ti       9.45901      1.86442     15.37287         1.028090      1.330477     -0.262121
Ti       9.51435     13.41372      2.39231         1.234814      0.589258     -1.378038
Ti       9.57585     13.38971     15.42490        -0.168530      0.292839     -0.735298
Ti       9.50515      1.96569      6.73500         1.231123     -0.195366     -1.497816
Ti       9.46985     13.47871      6.70299         1.192402      0.106560     -0.197300
Ti       9.60743      1.94589     11.06119        -0.116395     -0.161202     -1.813881
Ti       9.66208     13.39597     11.01568        -0.567897      0.479611     -0.380547
Ti       9.53768      5.68130      2.37562         0.605024      1.507038     -2.444082
Ti       9.55461      5.82927     15.43955         0.333257     -1.623999      0.863781
Ti       9.52579      5.73987      6.72634         0.937565      0.719893      0.938323
Ti       9.59867      5.80221     10.93680         1.307149     -0.214814     -1.064545
Ti       9.66511      9.61143      2.29197        -0.136815     -0.657348     -0.446851
Ti       9.62369      9.66049     15.51388        -1.531728     -1.083877     -1.728959
Ti       9.59402      9.57497      6.66196        -0.191134     -0.218629     -0.290016
Ti       9.56803      9.58087     11.07969         1.939792     -0.214161     -0.595023
O       1.94982      1.78550      0.59650         0.199880      0.667124      0.087983
O       1.85383      1.99046     13.66379         0.115718      0.064022     -0.151464
O       1.99905     13.41800      0.51323         0.228567     -0.138992     -0.513068
O       1.89187     13.49726     13.44866         0.138223     -0.147548      1.277266
O      13.27932      1.89001      0.53835         0.539684     -0.083848      0.317188
O      13.45172      1.93994     13.68737        -0.331520      0.016937     -0.056112
O      13.55858     13.31136      0.52987        -0.262633      0.048015      0.796206
O      13.33531     13.42006     13.71125         0.197777     -0.012122     -0.122349
O       1.78146      1.86791      4.96025         0.518074      0.326866      0.168136
O       1.91129     13.44191      4.94142         0.116654     -0.023007     -0.032894
O      13.38630      1.81982      4.87250         0.339778      0.247324      1.264053
O      13.48762     13.49996      4.93583        -0.282478     -0.245665      0.892580
O       1.94561      1.97055      9.21776        -0.300468     -0.177163      1.330147
O       1.75620     13.52620      9.37967         0.481019     -0.064871     -0.119289
O      13.30432      2.01622      9.20505         0.121376     -0.297129      1.558414
O      13.50730     13.38448      9.37408        -0.245412      0.148617      0.102816
O       2.00974      5.76045      0.48866        -0.215913      0.197837      1.281189
O       1.79853      5.78219     13.70449         0.287218     -0.205262      0.955750
O      13.28449      5.75368      0.59834         0.086604     -0.141035      0.660455
O      13.31978      5.73183     13.75853         0.398631     -0.052743      0.757339
O       1.81343      5.82313      4.93695        -0.072748     -0.328385     -1.052361
O      13.59168      5.61693      4.83618        -0.190735      0.540861      0.256472
O       1.86015      5.75796      9.21183         0.252379      0.472576      1.262792
O      13.46454      5.83047      9.20392         0.047409     -0.579169      0.945253
O       2.05783      9.49275      0.49029        -0.269205      0.510075     -0.058525
O       1.98404      9.72374     13.66077        -0.015907     -0.652812     -0.822771
O      13.49775      9.65147      0.55121         0.070791      0.097180      0.235065
O      13.41989      9.59273     13.71659         0.282338     -0.073014      0.132130
O       1.97634      9.67811      4.81131         0.024293     -0.052134      0.002773
O      13.48110      9.66504      4.86946        -0.012770     -0.140931      0.330436
O       2.02638      9.60460      9.20375        -0.232080      0.006990      1.697829
O      13.46985      9.56259      9.27123        -0.091014      0.108496     -1.082008
O       5.72989      1.80275      0.57642         0.204322     -0.049514      0.009308
O       5.82932      2.01308     13.52599        -0.365214     -0.004990      1.075247
O       5.64234     13.55903      0.57290         0.303904     -0.208286      0.527894
O       5.77909     13.29019     13.44420        -0.325327      0.515538      0.637738
O       5.74058      1.97710      4.89489        -0.267857      0.200315      1.693831
O       5.70168     13.45418      5.10998         0.259753     -0.116199     -0.303999
O       5.78615      1.95666      9.17200        -0.064623     -0.119220      1.493094
O       5.78895     13.54730      9.15307        -0.160074     -0.217983      1.205335
O       5.85293      5.72649      0.66793        -0.420081      0.031079     -0.719772
O       5.59051      5.72468     13.63123         0.642314      0.202113      0.200455
O       5.86072      5.62801      4.81295        -0.584129      0.058677      0.444271
O       5.70709      6.01810      9.25617         0.125956     -0.568185      1.876525
O       5.77712      9.60190      0.59231        -0.100204      0.087182     -0.025111
O       5.64708      9.49843     13.65361         0.101146     -0.207221     -0.407408
O       5.71323      9.69574      4.94741         0.219894      0.032247     -0.768037
O       5.74078      9.35433      9.11918         0.171856      0.616205      2.093369
O       9.49655      1.84035      0.56387         0.071671     -0.330875      1.358875
O       9.53707      1.94080     13.55884        -0.304038     -0.091679      0.576580
O       9.65282     13.43895      0.56265        -0.815391      0.126812      0.611334
O       9.60788     13.31521     13.65527        -0.106489      0.237633     -0.092768
O       9.61355      1.94843      4.88229        -0.266972      0.348223      1.306121
O       9.45112     13.52789      4.93182         0.102350     -0.724792      0.132243
O       9.65161      1.82799      9.21098        -0.204679      0.194302      1.314649
O       9.77463     13.45426      9.24111        -0.931563     -0.273496      0.363286
O       9.57364      5.75188      0.52873        -0.111815     -0.028746      1.678096
O       9.70816      5.85031     13.67548        -0.772194     -0.245359     -0.402902
O       9.47509      5.62144      5.01212         0.108805      0.170869     -1.423958
O       9.77401      5.90330      9.12845        -0.719300     -0.085224      1.158971
O       9.71602      9.60574      0.47677        -0.501596     -0.063646      1.112270
O       9.46456      9.57032     13.72308         0.459993      0.037186      0.144719
O       9.52207      9.58835      4.86465         0.146068      0.327844      0.683330
O       9.76895      9.58944      9.26911        -0.844930      0.170006      0.878545
O       3.80247      1.91381      2.82635         0.883160     -0.280228     -0.164168
O       3.80464      1.88713     15.75765         0.517302      0.744601     -0.090515
O       3.87381     13.38115      2.87731        -0.186698      0.825467     -0.466340
O       3.88215     13.47988     15.77704        -0.579951      0.174863     -0.488062
O       0.01667      1.86373      2.71531        -0.320277     -0.016305      0.032323
O      15.35682      1.93972     15.91317        -0.148410      0.129789     -0.463107
O       0.04040     13.36368      2.67655         0.328082     -0.098319     -0.023026
O       0.05390     13.47900     15.76612         0.129372     -0.766255     -0.273002
O       3.84863      1.98888      7.23408        -0.685823     -0.260084     -0.983482
O       3.77825     13.57154      7.16726         0.955041     -0.590669     -0.062088
O      15.33312      1.93257      7.11599        -0.059212      0.112958     -0.219213
O       0.01017     13.50646      7.12884        -0.562226     -0.174343      0.105668
O       3.76871      2.04853     11.45722         1.603968     -0.809775     -0.374915
O       3.83844     13.55690     11.31538         0.165159     -0.476099      0.271974
O      15.29551      1.80350     11.33611        -0.233734      0.677155      0.313728
O      15.32588     13.55935     11.40407        -0.117207     -0.720121      0.542349
O       3.76918      5.80388      2.82520         0.801624     -0.197140     -0.288125
O       3.85831      5.66342     15.90920         0.051378     -0.235954     -0.469256
O       0.01200      5.72714      2.66152        -0.163577      0.408478      0.178188
O      15.27153      5.69200     15.95934         0.675274      0.670976     -0.201186
O       3.75267      5.70986      7.06565         0.787005      0.365655     -0.505499
O       0.00916      5.73915      7.10524        -0.226403     -0.091285      0.011721
O       3.77030      5.81011     11.43260         1.124518      0.119601      0.100584
O      15.35916      5.75810     11.41338        -0.698433      0.125010      0.255793
O       3.85034      9.41723      2.71841         0.372564      0.723369      0.014080
O       3.92277      9.55712     15.85564        -1.786655     -0.055365      0.199708
O       0.13782      9.78776      2.62763        -1.403185     -0.318444     -0.150944
O       0.07402      9.55667     15.83832        -0.062900     -0.011010     -0.063152
O       3.81967      9.75889      7.14906         0.192913     -0.607279     -0.858002
O       0.04629      9.67248      7.13623         0.155718     -0.332040     -0.589264
O       3.89001      9.63618     11.33222        -0.096337     -0.933868      0.175121
O      15.31736      9.57588     11.44286         0.867756      0.378779      0.138647
O       7.65571      1.85172      2.71519         0.158471      0.254719     -0.132771
O       7.63366      1.76327     15.78953        -0.208779     -0.170531      0.205819
O       7.65136     13.48412      2.76240        -0.152913     -0.358229     -0.146158
O       7.59668     13.43654     15.71354         0.052249      0.053471      0.267157
O       7.58836      2.03625      7.10179         1.019818     -0.039998      0.034333
O       7.64483     13.50649      7.24761         0.357755     -0.294505     -0.278198
O       7.66947      1.99274     11.40253        -0.313947     -0.363113      0.046922
O       7.66556     13.39607     11.37996         0.287669      0.334375     -0.127835
O       7.73129      5.69028      2.73108        -1.176512      0.410121      0.117038
O       7.61934      5.86807     15.87571        -0.097498     -0.444643     -0.580048
O       7.64047      5.94912      7.10329        -0.466450     -0.909787     -0.126433
O       7.75147      5.81343     11.30108        -0.939238      0.000798      0.500043
O       7.60627      9.56720      2.74129         1.224180      0.039214      0.019941
O       7.65257      9.58230     15.74803        -0.394177     -0.308549      0.763474
O       7.67149      9.59123      7.14840         0.386111      0.090873     -0.264433
O       7.70803      9.63585     11.43035        -0.897414     -0.471254     -0.221559
O      11.59715      1.91384      2.73631        -1.171138      0.212886     -0.004698
O      11.44942      1.86722     15.88277        -0.338901     -0.238147     -0.489990
O      11.48430     13.35371      2.61559         0.161594      0.127474      0.725966
O      11.48139     13.30124     15.83495         0.214518      0.409521     -0.127321
O      11.48636      1.97203      7.13940        -0.254607     -0.153977     -0.682686
O      11.46280     13.42234      7.05651         0.276728      0.159521     -0.153492
O      11.46611      1.94221     11.58664         0.407323     -0.402906     -0.499286
O      11.45020     13.48258     11.34599         1.293387     -0.390005      1.004922
O      11.49967      5.65157      2.88246         0.123498      0.555239     -0.496463
O      11.40683      5.63979     15.89556         0.361481      0.318338      0.096817
O      11.59944      5.88979      6.87930        -0.506975     -0.491582      0.233335
O      11.51165      5.71704     11.41650         0.266447      0.088476      0.167238
O      11.55370      9.65470      2.74175        -0.583344     -0.365095     -0.320608
O      11.50075      9.64040     15.76074         0.112018      0.231355      0.275771
O      11.52946      9.52910      7.14377         0.286879      0.781362     -0.866462
O      11.50918      9.58734     11.49504        -0.311198      0.706156     -0.041287
O       1.90490      3.83992      2.70706         0.196396      0.120120      0.053894
O       1.77672      3.88063     15.96730         1.266224     -1.251525     -0.677827
O       1.99451     15.29782      2.80470        -0.248028      0.006877     -0.291838
O       1.89151      0.00154     15.95571         0.288479      0.032957     -1.424047
O      13.52747      3.85113      2.69468        -0.444081     -0.696097     -0.026134
O      13.32824      3.78356     15.89197         0.368059      0.126236      0.201232
O      13.45618     15.29546      2.77545        -0.029062      0.281220     -0.374354
O      13.55171     15.30311     15.82547        -1.141108      0.200725     -0.250058
O       1.92136      3.89152      7.22237        -0.650359     -0.811980     -1.161626
O       1.86323      0.03242      7.14149         0.311558      0.726721     -0.108344
O      13.44904      3.80983      7.09337        -0.025634      0.139881     -0.358662
O      13.38950      0.00273      7.18825         0.088816      0.077637     -0.450923
O       1.82764      3.86298     11.44238         0.126353      0.203098      0.015166
O       1.92793      0.06195     11.55895         0.174449     -0.066227     -0.309609
O      13.38029      3.81296     11.43422         0.376381      0.153378      0.003977
O      13.31395      0.04216     11.51812        -0.007531     -0.602828     -0.053881
O       1.84180      7.68773      2.71921         0.096720      0.028422     -0.171694
O       1.99540      7.66666     15.84284        -0.217440     -0.203977     -0.149213
O      13.55662      7.79157      2.76806        -0.589467     -1.146833     -0.204651
O      13.27715      7.66634     15.93419         0.654140     -0.193999     -0.256881
O       2.00537      7.72881      7.01174        -0.403144      0.178598     -0.413537
O      13.58851      7.63660      7.06811        -0.520203      0.696516     -0.621619
O       1.81162      7.72882     11.48306         0.810005     -0.411031     -0.076395
O      13.35494      7.70285     11.45940         0.580699     -0.936603     -0.043754
O       2.11349     11.52307      2.65262        -0.164647     -0.363313     -0.117800
O       2.12052     11.57134     15.66078        -0.632058     -0.294769      0.328764
O      13.36132     11.53453      2.77032         0.721974     -0.274200      0.138087
O      13.48973     11.46070     15.83298         0.150185      0.337848      0.209787
O       1.96034     11.61488      7.14788        -0.089043     -0.597905     -0.248109
O      13.52859     11.50561      7.05335        -0.542675      0.180432      0.190028
O       1.97041     11.47319     11.39963        -0.523151      0.408211      0.133611
O      13.45487     11.49651     11.59524        -0.119139      0.703259     -0.417254
O       5.63390      3.79398      2.67395         0.588907      0.030832      0.025187
O       5.92740      3.72825     15.87034        -0.927773      0.932617     -0.287376
O       5.86164     15.33475      2.92210        -1.321312      0.304711     -1.002932
O       5.72719      0.00548     15.68000        -0.046682     -0.603679      0.015063
O       5.67244      3.96292      7.19543         0.477696     -0.508725     -0.736307
O       5.76090      0.08626      7.10415         0.041461     -0.413899      0.053299
O       5.83109      3.89742     11.36565        -0.453745     -0.037421      0.172181
O       5.77171     15.34654     11.47244        -0.015958      0.954099     -0.521474
O       5.77407      7.61134      2.82631         0.127920      0.639518     -0.241347
O       5.71426      7.63277     15.95646        -0.093478     -0.628490     -0.702375
O       5.61616      7.68783      6.93237        -0.118704     -0.202282     -0.200230
O       5.83048      7.70031     11.57703        -0.425700     -0.231193     -0.157550
O       5.71511     11.56302      2.73621         0.218879     -0.574403      0.024568
O       5.68139     11.48363     15.67338         0.268814      0.596613      0.409996
O       5.82874     11.49943      7.18265        -0.315394      0.893792      0.114386
O       5.70826     11.49217     11.28237         0.306194     -0.352396     -0.152203
O       9.52222      3.83050      2.57984         0.554571     -1.184045      0.611864
O       9.42163      3.75833     15.76013        -0.046520      0.146845      0.085513
O       9.71017     15.33262      2.84481        -0.735906      0.455784     -0.620207
O       9.60717     15.26111     15.72470        -0.083033      0.472353      0.264856
O       9.55239      3.88744      7.20822        -0.114356     -0.406484     -0.455083
O       9.51865      0.03607      7.10583         0.011619      0.345593     -0.188185
O       9.66583      3.83246     11.23152        -0.511695      0.706602      0.673215
O       9.61357      0.01320     11.49685        -0.382255     -0.498448     -0.143825
O       9.62496      7.69185      2.81854         0.032805     -0.214012     -0.386902
O       9.61001      7.66556     15.84827        -0.072551      0.591234     -0.020154
O       9.58580      7.75694      7.08641         0.110719     -0.640988     -0.271205
O       9.70575      7.68915     11.50613        -0.921197     -0.107476     -0.177783
O       9.53376     11.47701      2.66740        -0.168315      0.016554      0.384107
O       9.43741     11.48791     15.89454         0.661788      0.848477     -0.096336
O       9.57864     11.54689      7.19867        -0.253406     -0.363811     -0.616598
O       9.57701     11.51318     11.48293         0.202935     -0.024792     -0.427130
