  # total energy = -7866.15350187 
CRSYTAL
PRIMVEC
    15.010000000000000    0.0000000000000000    0.0000000000000000
     0.0000000000000000   15.010000000000000    0.0000000000000000
     0.0000000000000000    0.0000000000000000    16.400000000000000
PRESSURE
17.2558 17.5789 8.41035 0.068656 -0.180425 -0.013671
PRIMCOORD
320 1
Pb       3.74108      3.57588      4.14967         0.064152      0.369948     -0.530320
Pb       3.64329      3.81821     16.34022        -0.104864     -0.900967      0.571941
Pb       3.78642     14.91910      4.16639         0.057217      0.288205     -0.227625
Pb       3.86144      0.05944     16.36447        -0.422057     -0.428976     -0.222655
Pb      14.99099      3.76898      4.20906         0.114710      0.195777     -0.691146
Pb      14.87721      3.70997      0.04521         0.618378      0.021798     -0.263143
Pb      14.90734      0.00638      4.27497         0.101413     -0.100566     -0.697146
Pb       0.08236      0.03971     16.33674        -0.457471      0.016027     -0.000175
Pb       3.66473      3.75876      8.12900         0.678336     -0.300200      0.266305
Pb       3.77274     14.98984      8.28621        -0.535436      0.023205     -0.316838
Pb       0.06270      3.77740      8.15152        -0.470200     -0.500392      0.820875
Pb       0.12541     14.87598      8.23062        -0.271654      0.460274      0.613103
Pb       4.00326      3.68821     12.35486        -1.041396      0.223549     -0.354396
Pb       3.66479     14.96707     12.34761         0.465637     -0.238480     -0.121931
Pb       0.09225      3.87848     12.27668        -0.274072     -0.847374     -0.104868
Pb       0.01704     14.95616     12.22169         0.264022      0.414067      0.109428
Pb       3.70780      7.58995      4.18951        -0.603852     -0.486951     -0.203502
Pb       3.74003      7.53749      0.02407        -0.045674     -0.575434     -0.314302
Pb      14.89064      7.58437      4.08450         0.478375     -0.231992      0.256121
Pb      14.90136      7.47709      0.04546         0.004979     -0.597330     -0.666457
Pb       3.74915      7.52363      8.25877         0.045818     -0.359294     -0.165505
Pb       0.04365      7.51550      8.13689         0.208769     -0.156644      0.644422
Pb       3.68839      7.29247     12.38625         0.442323      0.661339     -0.648850
Pb      14.94317      7.45614     12.23976         0.444766      0.942629      0.234629
Pb       3.59050     11.21416      4.11493         0.059647      0.339414     -0.531777
Pb       3.68296     11.31145      0.04587         0.354659      0.540122     -0.212466
Pb      14.91244     11.19327      4.09150         0.874572      0.097060      0.326438
Pb      14.92440     11.36580      0.08728         0.288112      0.039405     -0.642226
Pb       3.56753     11.24454      8.26312         0.688225      0.282055      0.235859
Pb      15.00896     11.18456      8.10833        -0.315681      0.652615      1.137189
Pb       3.66327     11.08973     12.43990         0.543491      0.349220     -0.279639
Pb      14.95602     11.20811     12.32542         0.084299     -0.633614      0.037390
Pb       7.47270      3.87293      4.20893        -0.060282     -0.651516     -0.718981
Pb       7.55371      3.68859      0.23621         0.004302      0.048682     -1.116047
Pb       7.58383      0.01172      4.24256        -0.539715     -0.266822     -0.697444
Pb       7.62071      0.01961      0.02708        -0.233653     -0.298044     -0.107798
Pb       7.57646      3.71805      8.13607        -0.901997     -0.091296      0.713657
Pb       7.48646      0.02280      8.29240         0.125758     -0.357703     -0.200875
Pb       7.56637      3.77977     12.37965         0.001628     -0.095769     -0.712439
Pb       7.53906     14.98340     12.24559        -0.070924      0.011345      0.415336
Pb       7.32397      7.47983      4.17088         0.769807      0.510262     -0.498450
Pb       7.51626      7.39402      0.10835         0.023811      0.062690     -0.535778
Pb       7.52182      7.35039      8.13664        -0.481405      0.925012      0.197919
Pb       7.58018      7.60088     12.34380        -0.599766     -0.310184      0.055515
Pb       7.30874     11.18671      4.18910         0.377498      0.199321     -0.674886
Pb       7.37097     11.30140      0.05980        -0.068018     -0.139355     -0.191237
Pb       7.43844     11.13330      8.21913        -0.164442      0.408636     -0.208398
Pb       7.53564     11.24143     12.35710        -0.545322     -0.158640      0.197280
Pb      11.25095      3.67652      4.23406        -0.027513      0.176788     -0.518283
Pb      11.35414      3.78826      0.12416         0.009629     -0.301770     -0.613061
Pb      11.24780     14.97216      4.17152        -0.514627      0.281382     -0.238368
Pb      11.41780      0.13491     16.39222        -0.662483     -0.573148     -0.187478
Pb      11.41851      3.70769      8.27556        -0.374284      0.161692     -0.137008
Pb      11.25099     14.90761      8.22288         0.104726      0.294569     -0.242719
Pb      11.26039      3.72985     12.16678        -0.021261      0.528927      0.009368
Pb      11.28820     14.89272     12.35205        -0.526043      0.296520     -0.307684
Pb      11.25927      7.57845      4.12299        -0.243750     -0.016237      0.040403
Pb      11.20451      7.45494      0.19188         0.114001     -0.081371     -1.262462
Pb      11.24371      7.51410      8.10530        -0.321062     -0.198337      0.185944
Pb      11.25968      7.44042     12.31858         0.024931      0.338437      0.124750
Pb      11.03088     11.27331      4.12051         0.063949     -0.256229      0.129839
Pb      11.16929     11.31184      0.03173         0.279614      0.072090     -0.908543
Pb      11.17538     11.27155      8.23631         0.056587      0.146071     -0.263781
Pb      11.22234     11.10768     12.38828         0.498077      0.189122      0.328323
Ti       1.91928      1.77242      2.08286        -0.081119      2.552644      0.063544
Ti       1.83093      1.85233     14.28033         0.654359      0.610281      0.863160
Ti       1.79234     13.20035      2.10468         0.420242     -1.985621     -0.454917
Ti       1.88782     13.11098     14.34589        -0.377371      0.252799      0.547339
Ti      13.21637      1.78720      2.09804        -0.646098      0.960443     -0.672814
Ti      13.11948      1.92123     14.15908         0.770914      0.132713      2.252024
Ti      13.10093     13.14472      2.16518         0.564449      0.325786     -0.327105
Ti      13.17998     13.19804     14.29741        -1.322418     -0.681808      2.208484
Ti       1.81198      1.83761      6.13078         1.336941     -0.335376      0.824292
Ti       1.77152     13.06323      6.08501         0.921131      1.739358      0.920135
Ti      13.11031      1.86870      6.25269        -0.153755     -0.171310      1.356534
Ti      13.05631     13.09789      6.17565        -0.426060      0.851194      0.148719
Ti       1.93141      1.83864     10.33244        -1.144541      0.642409     -1.286410
Ti       1.89002     13.03631     10.40610         0.652495      0.347833     -0.821464
Ti      13.13171      1.82051     10.30957         0.891891      1.215764     -1.105393
Ti      13.16030     13.07783     10.32265        -0.092042     -0.185873     -1.594979
Ti       1.86890      5.59314      2.13107        -0.449414     -0.889930      0.037824
Ti       1.84536      5.60049     14.34322        -1.052993      0.222509      0.705065
Ti      13.17186      5.59118      2.21139        -0.530343      0.192138     -0.300782
Ti      13.12334      5.59528     14.30025        -0.297958      0.340290      1.354678
Ti       1.78849      5.66966      6.18226         0.475208      0.322119     -0.717606
Ti      13.03682      5.68263      6.20614         0.444979     -0.812419     -0.840612
Ti       1.91276      5.56940     10.30809         1.086026      0.099469      0.436908
Ti      13.20106      5.68639     10.22407        -0.847231     -1.895537     -0.827602
Ti       1.80718      9.31968      1.95212         1.182257      1.269967      1.889380
Ti       1.85122      9.35850     14.41341        -1.313253      0.226306     -1.024625
Ti      13.11376      9.46635      2.06384        -0.580373     -1.059868      0.028783
Ti      13.11937      9.39291     14.47184        -0.584575      0.017797     -0.974618
Ti       1.85098      9.40889      6.19333        -0.290616     -1.388535     -0.803744
Ti      13.11063      9.40990      6.23348        -0.816853     -0.445025     -1.159844
Ti       1.86527      9.34271     10.30825        -0.571233     -0.324292      0.412728
Ti      13.07943      9.39231     10.20720         0.896040     -0.723269      1.019446
Ti       5.67176      1.81687      1.99188        -1.290887      0.581117      0.969747
Ti       5.64166      1.81250     14.38905         0.574578     -0.012730      0.907208
Ti       5.57615     13.16422      2.09213         0.558751     -0.581672     -0.680272
Ti       5.62410     13.10244     14.33094        -0.203248     -0.677319      2.129133
Ti       5.56993      1.79661      6.24089        -0.111314      0.511515     -0.305104
Ti       5.47808     13.09784      6.19159         1.305797     -0.663737     -0.385625
Ti       5.57303      1.76151     10.33300         1.499738      0.889709     -0.642830
Ti       5.63975     13.03797     10.34331        -0.763391     -0.040836      0.623731
Ti       5.59300      5.59464      2.11695        -0.254871     -1.096483      0.328562
Ti       5.59081      5.52775     14.48569         1.570357      0.972757      0.008388
Ti       5.53561      5.63400      6.14255        -0.666880     -0.789864      0.324712
Ti       5.71251      5.60223     10.30729        -0.982785     -0.547548     -0.780811
Ti       5.50721      9.35795      2.11510         1.112212      1.124677      0.403996
Ti       5.56207      9.29451     14.43769         1.385249      0.596684     -1.266803
Ti       5.55831      9.40665      6.23074         0.209102     -0.852597      0.743123
Ti       5.59971      9.33999     10.32789        -0.043558      0.036995     -0.001001
Ti       9.40986      1.86219      2.13194         0.343846     -0.450095      0.490365
Ti       9.44997      1.87874     14.40403        -1.092344     -0.586981      1.817175
Ti       9.35964     13.10882      2.04359        -1.180726      0.658953     -0.023056
Ti       9.37268     13.10512     14.35320         0.311911      1.109862      1.041328
Ti       9.32120      1.87470      6.23915         0.528932     -0.313981     -0.300293
Ti       9.25268     13.13186      6.23604         0.204957     -0.247706     -0.377000
Ti       9.39836      1.85169     10.32118        -0.520935      0.861380     -0.656227
Ti       9.40899     13.06660     10.32675        -0.914173      1.206445     -0.439723
Ti       9.42867      5.59472      2.13000        -1.525470      0.213332      0.177371
Ti       9.37951      5.55858     14.41864         0.176292      0.773475      0.539976
Ti       9.30713      5.63883      6.15309         1.307297      0.107586     -0.470314
Ti       9.40307      5.66822     10.17115         0.149688     -0.968715      0.351799
Ti       9.28724      9.35450      2.08770        -0.902958      0.396793      0.295519
Ti       9.33293      9.37354     14.44636         0.441584     -0.382970      0.803569
Ti       9.36539      9.35541      6.18416        -0.725219      0.482568      0.283869
Ti       9.36881      9.38984     10.25278        -0.073119     -0.499636     -0.519014
O       1.80526      2.06053      0.30644         0.121706     -0.805893     -0.792380
O       1.93395      1.83665     12.48787        -0.230951     -0.159880     -0.119809
O       1.73333     13.09534      0.27207         0.283972     -0.133627      0.140530
O       1.88886     13.13736     12.51905        -0.211620     -0.261269      0.153061
O      13.14856      1.83213      0.23153         0.160299     -0.050695      0.763745
O      13.23658      1.95303     12.41800        -0.316612     -0.351818     -1.096958
O      13.19064     13.18861      0.35791        -0.063884     -0.354025     -0.714424
O      13.16176     13.15083     12.55861        -0.319989     -0.040862     -2.714499
O       1.87527      1.82625      4.29974        -0.279168     -0.084046      0.344095
O       1.79064     13.14531      4.30969        -0.025705      0.144412     -0.161279
O      13.11544      1.95821      4.45761         0.377964     -0.348956     -0.928800
O      12.98828     13.13220      4.33128         0.337741     -0.056760      0.502419
O       1.87483      1.89128      8.40936         0.259129     -0.126965      0.809800
O       1.85941     13.02785      8.52813        -0.185676      0.402946     -0.319185
O      12.97848      1.90358      8.40247         0.409160     -0.361651      0.709286
O      13.15084     13.07524      8.44692        -0.079540     -0.127832      1.060308
O       1.79504      5.59630      0.29289         0.076911      0.185164     -0.006576
O       1.89984      5.58729     12.51275        -0.309727      0.407911      0.447539
O      13.15953      5.54209      0.37511        -0.138672      0.824807     -0.628930
O      13.12620      5.52154     12.53504        -0.112680      0.428766     -1.682930
O       1.86193      5.75347      4.40093        -0.322052     -0.382580     -0.466389
O      13.02455      5.59910      4.30604         0.241889     -0.160393      0.314640
O       1.92255      5.44804      8.52417        -0.497400      0.688626     -1.501077
O      13.20960      5.69661      8.35248        -0.473729      0.118328      0.804805
O       1.90245      9.50125      0.18947        -0.179342     -0.650173     -0.736360
O       1.79149      9.34478     12.51651         0.106970      0.183568      0.646551
O      13.22142      9.61582      0.24163        -0.597163     -0.974071      0.389925
O      13.02990      9.43464     12.53401         0.185089     -0.267280      0.787737
O       1.69581      9.38328      4.37828         0.428628     -0.355553      0.201582
O      13.08616      9.36125      4.34002         0.339791      0.278677      0.211096
O       1.93079      9.29973      8.48000        -0.176866      0.414736     -0.614338
O      12.96515      9.30464      8.40366         0.450723      0.028474     -0.792543
O       5.57306      2.00386      0.22417         0.178140     -0.661926     -0.964885
O       5.48065      1.82916     12.58781         0.838659     -0.264274     -0.570627
O       5.66916     13.09198      0.21563        -0.410308      0.207428      0.849623
O       5.57525     13.04850     12.61133        -0.011775      0.122471     -1.956602
O       5.41435      1.77618      4.40299         0.849594      0.131763      0.215609
O       5.52617     13.11709      4.34506         0.075892     -0.004892      0.194586
O       5.56252      1.71086      8.48543         0.127330      0.078339      0.134813
O       5.61745     12.96670      8.55607        -0.056913      0.367891     -0.854484
O       5.54174      5.53533      0.30169         0.057401      0.327883     -0.137396
O       5.62939      5.57777     12.64963         0.310909      0.264585     -0.516285
O       5.55066      5.58314      4.27967        -0.031013      0.193647      1.075288
O       5.70585      5.62826      8.46149        -0.332846      0.087961      0.174636
O       5.60799      9.41906      0.34052        -0.420904     -0.468512     -1.220656
O       5.72772      9.26303     12.52915        -0.570840      0.141177      0.892554
O       5.49007      9.38125      4.42577         0.127135      0.029223     -1.015653
O       5.54282      9.36569      8.44776         0.072138     -0.060056      0.519958
O       9.53159      1.93842      0.34409        -0.619797     -0.086264     -0.089865
O       9.36029      1.82689     12.65515        -0.049460     -0.016773     -1.640005
O       9.21007     13.06473      0.19787         0.550747     -0.388117      1.205550
O       9.40096     13.28550     12.52571         0.223062     -0.344163     -0.278514
O       9.26527      1.83967      4.37192         0.289681     -0.068311      0.593785
O       9.36329     13.32548      4.36703         0.161519     -0.779478      0.331038
O       9.36732      1.84476      8.46613         0.119847      0.284670      0.169953
O       9.26579     13.04760      8.48607         0.190610      0.060697     -0.067473
O       9.32597      5.67437      0.25938         0.514486     -0.282045      1.187898
O       9.38851      5.62627     12.55580        -0.061575     -0.037054      0.644851
O       9.31735      5.65959      4.31328        -0.052108     -0.187971      0.682418
O       9.32706      5.60823      8.33142        -0.065425      0.129325      0.476428
O       9.09935      9.44920      0.27864         1.023779     -0.148948      0.364466
O       9.52188      9.43301     12.60580        -0.568270     -0.707945     -0.541054
O       9.43894      9.36814      4.42273        -0.496508     -0.140028     -1.984881
O       9.37365      9.40332      8.39316         0.145111      0.019346      0.848465
O       3.76948      2.20268      2.24709        -0.923270     -0.196266      0.229659
O       3.74388      1.78634     14.65962         0.043562     -0.003262     -0.008430
O       3.72053     12.78465      2.32661        -0.587689      0.532617     -0.109988
O       3.68140     13.15239     14.71713         1.029879      0.748567     -0.008922
O      15.00695      1.47044      2.30195         0.047132      0.010407      0.595347
O       0.01509      1.97590     14.51031        -0.423326      0.316756      0.200316
O      14.97906     13.49111      2.39479         0.074537     -0.389276      0.240624
O      15.00276     13.09168     14.54424         0.165921     -0.548828      0.432697
O       3.74477      1.96383      6.46956        -1.219629      0.463012      0.144977
O       3.68630     12.91393      6.47998        -1.216660     -0.304087     -0.035697
O       0.02851      1.52101      6.48334        -1.235857      0.804701     -0.289630
O      14.94701     13.29066      6.53447         0.533684     -0.193757     -0.837079
O       3.77529      1.85410     10.50677        -1.173796      0.485817      0.259392
O       3.72679     12.80132     10.66673         0.468824      0.222224     -0.388091
O       0.00070      1.64356     10.39607        -0.262661      0.573016      0.399031
O       0.02122     13.20150     10.59623        -1.367092      0.140417      0.139379
O       3.65394      5.25833      2.36034         1.110573      0.221793     -0.163903
O       3.70690      5.77799     14.64394        -0.014363      0.159507      0.157953
O      14.97904      5.91551      2.43913         0.260537     -0.338587     -0.129303
O      14.93207      5.44354     14.63196         1.539834      0.217712     -0.018659
O       3.65418      5.50666      6.40962         0.746273     -0.231902      0.366239
O      14.91646      5.87211      6.36532         0.499351     -0.069172      0.214389
O       3.78370      5.50957     10.56280         0.424255      0.175546      0.151601
O       0.04919      5.56969     10.50107        -1.050677      0.455830      0.315617
O       3.67402      9.72160      2.37371         0.175845     -0.896573     -0.288230
O       3.70332      9.22024     14.58615         0.088209     -0.436587      0.215971
O       0.03348      9.18432      2.22836        -1.929603     -0.556821      0.307871
O      14.95150      9.49165     14.59131         0.724844      0.429737      0.377160
O       3.64170      9.60818      6.40215         0.789415     -0.253713      0.246798
O      14.97280      9.14638      6.51828        -0.971152      0.425354      0.003892
O       3.71821      9.52263     10.60138         1.019295     -0.293847     -0.174898
O      15.00050      9.18029     10.43924        -0.742148     -0.049942      0.179376
O       7.45472      1.52500      2.29170         1.399848      0.183373     -0.000193
O       7.55755      1.95608     14.78643        -0.847555     -0.118962     -0.362099
O       7.43415     13.55482      2.31475         0.760779     -0.762891      0.233908
O       7.48769     12.96108     14.51008         0.304955     -0.004765      0.087567
O       7.43774      1.73555      6.58015         0.151981     -0.110448     -0.243997
O       7.40617     13.32104      6.40131         0.326419     -0.596127      0.284857
O       7.48239      1.69252     10.55760         0.030540     -0.129568      0.214595
O       7.51875     13.24609     10.66392        -0.465926      0.242832     -0.163062
O       7.45930      5.89739      2.43927        -0.410979     -0.760365     -0.663296
O       7.50760      5.59253     14.81940        -0.217192     -0.361398     -0.645719
O       7.44908      5.81963      6.39241        -0.679053     -0.010279     -0.323515
O       7.55357      5.56081     10.47440         0.068187      0.752066      0.608563
O       7.41236      9.26393      2.42846         0.056805     -0.933869      0.522019
O       7.47757      9.53827     14.51331        -0.149001     -0.136528      0.251135
O       7.45879      9.12569      6.36060        -0.551504      0.278136      0.417305
O       7.51834      9.15447     10.50389         0.534017      0.265148      0.090605
O      11.31163      2.06622      2.34605        -0.613793      0.158351      0.570906
O      11.28323      1.86912     14.67338         0.643777     -0.674262     -0.415756
O      11.25773     12.85922      2.30548        -1.028870     -0.395433     -0.130650
O      11.23933     13.30384     14.63590         0.926525     -0.026942     -0.009176
O      11.20905      1.99347      6.46757        -0.309761      0.169245     -0.389080
O      11.20207     12.98058      6.60509        -0.279515      0.121337     -0.535138
O      11.25412      1.89264     10.73056        -0.044621      0.054635     -0.568436
O      11.25604     12.82973     10.50869         0.491377      0.627302      0.099697
O      11.17982      5.30815      2.38509         1.231266      0.430796     -0.251297
O      11.29976      5.71507     14.74190        -1.325804      0.234172     -0.001414
O      11.21765      5.43914      6.37858        -1.068643     -0.305237      0.373144
O      11.24902      5.42776     10.38819         0.552923      0.604057      0.331538
O      11.18808      9.57603      2.29681         0.556614      0.408674     -0.284503
O      11.23413      9.25655     14.82658         0.143604      0.122115      0.182397
O      11.20996      9.43470      6.30068         1.260493      1.009932      0.956113
O      11.24723      9.55185     10.56484        -0.120691     -0.294341     -0.321967
O       1.44769      3.67185      2.41711         0.418434      1.143297      0.007739
O       1.96650      3.77139     14.54067         0.124615     -0.391396      0.035067
O       2.18064     14.98919      2.17105         0.438287     -0.392859      0.430997
O       1.76261     14.99781     14.70643         0.394337      0.499945     -0.405024
O      13.34013      3.72022      2.16294         0.476527     -0.552752      1.169150
O      13.00170      3.73897     14.57117         0.082700     -0.369787      0.402186
O      12.84565     14.97234      2.42006        -0.126487      0.546445      0.144067
O      13.32800      0.06599     14.51684        -0.737640     -0.077545      0.172737
O       1.58546      3.78045      6.40799         0.378347     -0.897860     -0.446547
O       2.13022     14.98414      6.31976        -0.656002     -0.637461      0.445444
O      13.22508      3.78575      6.46740         0.412962     -1.058399      0.065792
O      12.91204     14.93996      6.44982         0.050500      1.259266     -0.114621
O       1.86126      3.70300     10.63656        -0.241180     -0.470662     -0.210156
O       1.92012     14.97325     10.62088         0.688616     -0.306926     -0.292344
O      13.16449      3.76491     10.43944         0.159398     -0.539847      0.065116
O      13.00463     14.97913     10.40211        -0.343285     -1.093304      0.652345
O       2.09721      7.49754      2.35824         0.189843      0.254066     -0.445709
O       1.61688      7.51265     14.62751         0.402025     -0.614954      0.272592
O      12.89882      7.51562      2.26886        -0.007911      0.685567     -0.008733
O      13.25948      7.47694     14.59003        -0.044488      0.567774      0.400077
O       1.97069      7.53886      6.50801         0.194344     -0.502016      0.371535
O      12.76626      7.50443      6.31180         0.804086      0.489832      0.300244
O       1.92045      7.46393     10.58693         0.403101     -0.429505     -0.087595
O      13.10642      7.44749     10.63885        -0.724657      0.987487     -0.131213
O       1.59400     11.22775      2.46282        -0.178394      0.347146     -0.669359
O       2.00134     11.25397     14.55367        -0.397163     -0.297115      0.097994
O      13.48318     11.24357      2.37663        -0.812350      0.607527     -0.558815
O      12.96977     11.30514     14.54006         0.021538      0.083788      0.416759
O       1.56641     11.24722      6.38628         0.246469      0.068850      0.252213
O      13.23203     11.28133      6.37769         0.120257     -1.473030      0.445513
O       1.68207     11.21735     10.45696        -0.330563     -0.868201      0.570498
O      13.37264     11.15933     10.44670        -0.195404      1.318773      0.237343
O       5.90069      3.66405      2.32305         0.123866      1.460950      0.500741
O       5.58190      3.71896     14.58268        -0.324111     -0.315598      0.072688
O       5.23924      0.01444      2.24154        -0.254410     -0.551317      0.088334
O       5.74244     14.95667     14.63130        -0.271289      0.614603      0.259171
O       5.65467      3.74831      6.48887         0.454629      0.038914     -0.263625
O       5.40022     14.90684      6.44151        -0.135978      1.151265      0.400620
O       5.69796      3.65851     10.60472         0.077843      0.445235      0.177504
O       5.26853     14.89120     10.57951         1.145017      0.101764      0.033551
O       5.30938      7.47566      2.37323        -0.174289      0.210813     -0.144314
O       5.71256      7.45695     14.74891        -0.140733      0.384726      0.244744
O       5.33921      7.48710      6.42855         0.088321     -0.033445      0.047362
O       5.58492      7.45241     10.57309        -0.260037      0.126693      0.061331
O       5.88034     11.27378      2.31707        -0.218839     -0.055336      0.178833
O       5.40111     11.20168     14.62594         0.226714     -0.303049      0.135046
O       5.69574     11.20470      6.43099         0.604248      0.804252      0.332201
O       5.87674     11.20878     10.63598        -0.118625     -0.974129     -0.181282
O       9.13194      3.71280      2.44127        -0.491258      0.414939     -0.210946
O       9.41770      3.73743     14.76512         0.263413      0.549024     -0.467400
O       9.63756     14.96613      2.26218         0.226250      0.262036      0.150391
O       9.36123     14.98204     14.86971        -0.219676      0.641838     -0.897551
O       9.05954      3.78119      6.35110         0.548744     -0.838870     -0.033411
O       9.38647     14.99407      6.47812         0.477075      0.644802      0.326581
O       9.29759      3.74764     10.53721         0.037377     -0.284054      0.313137
O       9.46151      0.03048     10.51308         0.472613     -1.673096      0.246198
O       9.47084      7.48638      2.39214         0.438899      0.548908     -0.521631
O       9.28581      7.53015     14.79798        -0.085609     -0.518615     -0.561865
O       9.55449      7.51681      6.41870        -0.298239     -1.411471      0.294853
O       9.59050      7.50533     10.52213        -0.301796     -0.044837      0.090526
O       9.02262     11.25278      2.46672         0.763115      0.574441     -0.169776
O       9.54228     11.27657     14.60505         0.147331     -0.327270      0.012353
O       9.20666     11.24271      6.30933        -0.179738      0.618447      0.603224
O       9.20351     11.24942     10.51082        -0.193493     -0.790030      0.299575
