  # total energy = -7877.07957255 
CRSYTAL
PRIMVEC
    15.6000000000000000    0.0000000000000000    0.0000000000000000
     0.0000000000000000   15.6000000000000000    0.0000000000000000
     0.0000000000000000    0.0000000000000000    17.640000000000000
PRESSURE
-6.75843 -6.60542 -10.6908 -0.16614 -0.00327 0.027185
PRIMCOORD
320 1
Pb       3.77097      3.79006      4.43742         0.780014     -0.114847     -0.555403
Pb       3.94705      3.95432     17.60857        -0.060149      0.551154      0.032267
Pb       3.81634     15.47000      4.36092         0.133578     -0.163678     -0.563559
Pb       3.77099     15.57382     17.62146        -0.035525     -0.105028     -0.058084
Pb       0.01677      3.88822      4.36898        -0.497641     -0.364763     -0.118684
Pb       0.00907      4.00792      0.00988         0.104823     -0.242668     -0.192821
Pb      15.55108     15.52042      4.32625        -0.072809     -0.027038     -0.205137
Pb      15.44259      0.00604     17.60111        -0.457647     -0.122111     -0.167408
Pb       3.80666      4.00220      8.83090         0.089160     -0.157038     -0.356493
Pb       3.86851      0.02906      8.75191        -0.697479     -0.162197     -0.422878
Pb      15.54289      3.97379      8.82088         0.247106      0.018558     -0.633144
Pb      15.56586     15.58267      8.71150         0.274143      0.031702     -0.167757
Pb       3.94689      3.62705     13.27117        -0.268025      0.472359     -0.480142
Pb       3.81385     15.50136     13.15116        -0.119488      0.240532     -0.293258
Pb       0.01636      3.82512     13.20190         0.235881      0.144102     -0.610801
Pb      15.55175      0.07127     13.16775        -0.140206      0.120718     -0.424068
Pb       3.90100      7.77667      4.44410         0.190014      0.233780      0.161925
Pb       3.97271      7.79855     17.63361         0.119449     -0.450852     -0.432261
Pb       0.08675      7.91409      4.40254        -0.132675      0.075682     -0.145731
Pb       0.08737      7.82810     17.51952        -0.128610     -0.156829     -0.552353
Pb       3.91172      7.89004      8.85638         0.260139     -0.098998     -0.596179
Pb      15.51495      7.81243      8.91794        -0.092461     -0.481619     -0.812855
Pb       3.92842      7.73660     13.16424         0.087007     -0.068496     -0.196233
Pb       0.11860      7.84170     13.20396        -0.339428      0.025851     -0.217641
Pb       3.91756     11.65696      4.38216         0.100347      0.056690     -0.149227
Pb       3.90436     11.67213     17.62805         0.064979      0.155917     -0.622184
Pb      15.54595     11.62426      4.31565         0.018047      0.114085     -0.258586
Pb      15.56365     11.68085     17.48273        -0.228920      0.079264     -0.235322
Pb       3.83766     11.66203      8.83899        -0.144869      0.158368     -0.507938
Pb      15.49783     11.83280      8.78816         0.168239      0.142523     -0.304129
Pb       3.82366     11.83253     13.16610         0.027975     -0.108616     -0.605302
Pb      15.46236     11.71045     13.18341        -0.019052     -0.002427     -0.311615
Pb       7.83334      3.63405      4.56089        -0.204094      0.125735     -0.802510
Pb       7.74303      3.86879     17.61019         0.493599      0.188914      0.084829
Pb       7.63692     15.43424      4.41852         0.106775      0.155867     -0.671186
Pb       7.69973      0.01919     17.60797         0.304513     -0.048104      0.231554
Pb       7.57560      3.94752      8.79957         0.242689     -0.021481     -0.524169
Pb       7.79084     15.59315      8.78594         0.335422      0.073801     -0.636856
Pb       8.01754      3.99336     13.16219        -0.103057     -0.035065      0.444537
Pb       7.81235      0.08108     13.21177         0.179538     -0.174640     -0.297600
Pb       7.94336      7.69994      4.41291         0.048648      0.123425     -0.285600
Pb       7.80508      7.87737      0.05912        -0.104978     -0.170871     -0.495572
Pb       7.70707      7.84411      8.76318        -0.198828     -0.214899     -0.432687
Pb       7.72408      7.91568     13.13872         0.577515     -0.386188      0.326359
Pb       7.84903     11.68760      4.43136        -0.000253     -0.398474     -0.057219
Pb       7.77143     11.70931      0.00530        -0.298773     -0.271695     -0.324459
Pb       7.84458     11.75613      8.91298        -0.218115     -0.156458     -1.008221
Pb       7.78037     11.82136     13.18866        -0.537515      0.063143     -0.202400
Pb      11.71350      3.84984      4.43592        -0.218367      0.118322     -0.208352
Pb      11.78497      3.81798      0.04310        -0.037280     -0.060005     -0.530740
Pb      11.53214     15.37404      4.45126        -0.053975      0.193539     -0.322778
Pb      11.44169     15.46070      0.02232         0.835308      0.342962     -0.045261
Pb      11.54912      3.94296      8.83314         0.084855     -0.344951     -1.057449
Pb      11.84157      0.05232      8.73305        -0.270106      0.035165     -0.228977
Pb      11.82780      3.94481     13.19319        -0.330026     -0.194867     -0.103266
Pb      11.68116     15.54551     13.16913         0.028538      0.415166     -0.565022
Pb      11.75263      7.63562      4.29886        -0.213146      0.729794     -0.164379
Pb      11.64501      7.68421     17.51797         0.188505      0.173175      0.200512
Pb      11.55751      7.81559      8.73420         0.330339     -0.074621     -0.101652
Pb      11.73588      7.70694     13.22568        -0.280361     -0.019400     -0.536280
Pb      11.68137     11.59898      4.23068        -0.161629     -0.575505      0.549080
Pb      11.78999     11.56520     17.47781         0.002161      0.218611      0.329381
Pb      11.75828     11.63836      8.67175        -0.297326      0.495181      0.348218
Pb      11.58140     11.64860     13.06875         0.784903     -0.014155      0.208925
Ti       1.85497      1.90441      2.30958        -0.022638     -0.664055     -0.545128
Ti       1.94553      1.96303     15.64052        -0.610902     -0.233055     -1.090292
Ti       1.81565     13.53230      2.27348         0.476767      0.223839     -0.595870
Ti       1.87237     13.61724     15.53907         0.060175     -0.002763     -0.815875
Ti      13.50408      1.89412      2.54642         0.774624     -0.365539     -2.214640
Ti      13.71589      2.01226     15.51274        -0.857303     -1.175332     -1.184144
Ti      13.48290     13.63298      2.33585         0.806625     -0.353373     -1.311771
Ti      13.54524     13.64715     15.45114         0.390345      0.169424     -0.149151
Ti       1.88016      2.00553      6.78887         0.239497     -1.113884     -0.094175
Ti       1.86876     13.58934      6.68874         0.461036      0.343977     -0.266033
Ti      13.63188      1.95825      6.66742        -0.259613      0.124766     -0.152947
Ti      13.61064     13.65913      6.67316        -0.315562     -0.477040     -1.817500
Ti       1.98151      1.93389     11.12427        -0.052391      0.313223     -0.340957
Ti       1.83774     13.65121     11.16209         0.509952      0.212088     -1.384813
Ti      13.64901      2.02721     11.11217        -0.326620     -1.332032     -1.106503
Ti      13.59818     13.64660     11.15097        -0.084768      0.519232     -0.699502
Ti       1.94515      5.87289      2.49843         1.340274     -0.318748     -2.249123
Ti       2.07043      5.83336     15.48370         0.060054     -0.403764     -0.658501
Ti      13.77211      5.84097      2.37849        -0.883897     -0.166407     -0.949032
Ti      13.76026      5.80850     15.53504        -0.516734      0.096303     -0.904500
Ti       1.95242      5.89017      6.75586        -0.069993      0.131902      0.169637
Ti      13.61756      5.89431      6.68658        -0.172535     -0.183440     -0.298039
Ti       1.93611      5.84327     11.23875         0.519227     -1.369620     -1.423698
Ti      13.66976      5.84966     11.10483         0.029311     -0.005246     -0.173603
Ti       1.96385      9.71625      2.29604         0.228253      0.097436     -0.569532
Ti       2.02449      9.70650     15.50479        -0.225816      0.366990     -0.896775
Ti      13.67666      9.74308      2.21315        -0.930793      0.352525     -1.340993
Ti      13.60162      9.69146     15.51220         0.790686      0.424385     -0.633867
Ti       1.79532      9.71289      6.90715         1.062825      0.295951     -1.944987
Ti      13.62514      9.77056      6.77974        -0.838750     -0.519352     -0.968189
Ti       1.92839      9.74535     11.21576         0.477915      0.846720     -1.306287
Ti      13.60227      9.68099     11.16482        -0.341477      0.436391     -0.928475
Ti       5.80499      1.91037      2.34699         0.281507      0.282252     -0.084886
Ti       5.84310      1.92545     15.72631         0.245498      0.041081     -1.799847
Ti       5.80617     13.52557      2.33477        -0.534745      0.172665     -0.770642
Ti       5.82119     13.61042     15.58063         0.149727     -0.690703     -0.451184
Ti       5.80258      1.88257      6.77026        -0.278189      1.103658     -1.091528
Ti       5.80762     13.70268      6.82202        -0.324122     -1.173454     -1.544536
Ti       5.92010      1.92421     11.17111        -1.558100      0.340754     -2.048315
Ti       5.84960     13.72747     11.06218        -0.622668     -1.513570     -0.766940
Ti       5.86755      5.84183      2.48753         0.455104     -0.775322     -1.649126
Ti       5.97429      5.82519     15.45769        -0.171625      0.404285     -0.442429
Ti       5.85025      5.82363      6.76456        -0.112136      0.411833     -0.255561
Ti       5.88824      5.73064     11.35706        -0.922295      0.409340     -1.488256
Ti       5.85449      9.67350      2.38531         0.231048      0.503459     -0.787668
Ti       5.92172      9.67480     15.43650        -0.190930      0.151881      0.315320
Ti       5.80683      9.89996      6.87068         0.362478     -0.778767     -1.616467
Ti       5.87794      9.74919     11.17607        -0.914945      0.549991     -0.827425
Ti       9.70785      1.86900      2.41132        -1.231860     -0.323205     -0.877170
Ti       9.83786      1.91592     15.65263        -0.036264      0.704955     -0.964459
Ti       9.67477     13.51022      2.26051         0.060307      0.599420      0.205629
Ti       9.70721     13.57863     15.53020         0.089050      0.332205     -0.251540
Ti       9.68070      1.88822      6.77612         0.582127     -0.169713     -1.342112
Ti       9.69694     13.56515      6.79411         0.117367      0.129124     -1.230387
Ti       9.76001      1.99778     11.10576         0.974630     -0.481666     -1.247575
Ti       9.69752     13.63897     11.10492         0.489362      1.399691     -1.493817
Ti       9.77457      5.71405      2.28338        -0.276140      0.541927     -0.166925
Ti       9.82905      5.80639     15.60976        -0.254337     -0.417591     -0.925386
Ti       9.74061      5.79827      6.72888        -0.403080     -0.031885      0.267082
Ti       9.77423      5.91401     11.10196         0.130675      0.504881     -1.087384
Ti       9.71068      9.69079      2.32245         0.759140     -0.213096     -0.987578
Ti       9.76303      9.71541     15.55586        -0.521524     -0.341939     -1.141817
Ti       9.75284      9.70628      6.83283        -0.675926      0.378543     -2.594873
Ti       9.71648      9.81545     11.10604         0.730364     -1.626779     -1.572172
O       1.89031      1.82185      0.50303         0.014660      0.267919      0.956236
O       1.92406      1.78776     13.78236         0.187983      0.494372      1.834103
O       1.87847     13.50406      0.44761         0.198325      0.005563      1.113151
O       1.92113     13.72686     13.65600        -0.036421     -0.266553      2.155070
O      13.57572      1.90606      0.65227         0.040479      0.114931      1.891316
O      13.65348      1.97551     13.63689         0.284721      0.177712      1.614158
O      13.47187     13.66795      0.48215        -0.060850     -0.039849      1.381921
O      13.55279     13.53831     13.62667         0.020086      0.530082      1.056443
O       1.92004      1.76010      5.02110        -0.031549      0.882413      0.312673
O       1.92788     13.44798      4.87879        -0.184935      0.559188      0.963424
O      13.72269      1.81024      4.83121        -0.385286      0.342037      1.060619
O      13.63960     13.59140      4.81732        -0.023674     -0.083290      1.499860
O       1.97687      1.96525      9.33958        -0.107535      0.047675      0.410926
O       1.81398     13.75730      9.31696         0.026577     -0.553235      1.341866
O      13.56673      1.86047      9.21029         0.093132      0.482805      2.066743
O      13.67516     13.77951      9.31732         0.011092     -0.463484      1.229950
O       2.17549      5.80857      0.63789        -0.590149      0.317516      1.744026
O       2.02191      5.81563     13.63714        -0.451108      0.469769      1.560650
O      13.82120      5.66996      0.53960        -0.196107      0.365221      1.658861
O      13.66062      5.83432     13.69004         0.136937     -0.120409      1.297265
O       1.98643      6.04501      4.94473        -0.495053     -0.747549      0.844806
O      13.59180      5.83786      4.88960         0.269350      0.171079      0.499751
O       1.91532      5.77998      9.35290         0.010387      0.143750      1.629857
O      13.67233      5.89262      9.29596        -0.194323     -0.303481      1.116004
O       2.01699      9.70065      0.48202        -0.108912     -0.169410      0.627650
O       1.93433      9.62509     13.65657         0.240711      0.173292      1.365737
O      13.59232      9.81896      0.31927         0.523522     -0.451910      1.789951
O      13.59480      9.77607     13.69205         0.068107     -0.295696      0.960426
O       1.66634      9.63295      5.01820         0.417787      0.316782      1.663269
O      13.54994      9.79449      4.98200         0.609232     -0.064665      1.003652
O       2.06841      9.70034      9.34093        -0.623259      0.183563      1.596403
O      13.43896      9.66232      9.33919         1.022828      0.149334      1.328557
O       5.78257      1.97107      0.50779         0.373980     -0.316910      0.590047
O       5.73959      1.89583     13.85850         0.460810     -0.126921      1.789205
O       5.83794     13.44195      0.47706        -0.291239      0.113521      1.340015
O       5.96406     13.58718     13.73317        -0.214246      0.216461      1.799536
O       5.74530      1.79947      4.91289         0.213607      0.178995      1.641270
O       5.75498     13.57322      4.84429         0.208316      0.448158      2.240770
O       5.85477      2.05986      9.26456         0.189698     -0.409772      2.561651
O       5.79352     13.63367      9.22138         0.155952      0.521920      1.514620
O       5.80080      5.92141      0.56009        -0.171228     -0.044158      2.452478
O       5.99670      5.81324     13.62150        -0.193901      0.002874      0.810178
O       5.92880      5.84616      5.01116        -0.033377      0.116497     -0.093686
O       5.87265      5.78083      9.48486        -0.068537     -0.269670      1.556930
O       5.96978      9.64542      0.52073        -0.587835     -0.281239      1.728711
O       6.02498      9.66189     13.63383        -0.066365      0.618622      0.801879
O       5.85705      9.91242      5.04174        -0.229048     -0.230976      1.243469
O       5.80020      9.72253      9.31274         0.173099      0.165945      1.696612
O       9.57326      1.82057      0.57024         0.743493      0.131651      1.358640
O       9.84059      2.05758     13.80604        -0.372900     -0.366540      1.397093
O       9.73341     13.59093      0.45411         0.007357     -0.099639      0.912388
O       9.67170     13.66222     13.69320        -0.162034     -0.198165      1.326818
O       9.76167      1.91425      4.89678        -0.470103      0.052626      1.459710
O       9.53907     13.49691      4.95010         0.531710      0.357724      1.402553
O       9.76408      1.98380      9.22372        -0.044248     -0.030062      2.262811
O       9.63926     13.66579      9.25621        -0.083139     -0.104590      1.572730
O       9.81971      5.76980      0.48379        -0.005983      0.378555      0.823300
O       9.89673      5.72044     13.73324        -0.256048      0.095796      1.891426
O       9.66776      5.83607      4.94863         0.144120      0.081646      0.493697
O       9.76291      5.95977      9.22963         0.358601     -0.714533      1.966866
O       9.72530      9.65888      0.45236        -0.016818     -0.109063      1.306947
O       9.69549      9.71787     13.71311         0.278725      0.181061      1.037212
O       9.81421      9.82006      4.90376        -0.400998     -0.313696      1.815614
O       9.71719      9.71295      9.22835         0.003523      0.290975      2.286310
O       3.94384      1.99916      2.66703        -1.355376     -0.288070      0.343425
O       3.86638      1.85144     16.03349        -0.009689      0.386472     -0.111004
O       3.86743     13.49148      2.69207        -0.265683      0.345247     -0.166377
O       3.81167     13.49718     15.88997         0.740267      0.804022     -0.075876
O      15.54024      1.72568      2.77282         0.645977      0.547106     -0.185407
O      15.57387      2.05163     15.88295         1.022773     -0.415380      0.284270
O      15.53935     13.59179      2.51818         0.252106      0.087156      0.516056
O      15.43155     13.50152     15.91905         1.527730      0.380424     -0.310847
O       3.87284      2.04374      7.15461        -0.370662     -0.635009     -0.001444
O       3.80647     13.77070      7.13809         0.481780     -0.141270     -0.163026
O      15.51684      2.00568      7.23565         0.220166     -0.153259     -0.512142
O      15.48895     13.56023      7.03477         0.843582     -0.017165      0.413509
O       3.87954      1.95760     11.55501         0.703888     -0.501955      0.194607
O       3.86239     13.59859     11.58727         0.739527     -0.038539     -0.184342
O       0.05984      2.04002     11.53958        -0.591204     -0.475460     -0.062257
O       0.00376     13.59537     11.52854        -1.185670      0.560628      0.173980
O       3.93799      5.78696      2.98161        -0.376892     -0.071757     -0.344924
O       3.93619      5.75363     15.86326         0.065986      0.336299     -0.058195
O       0.06607      5.75905      2.79494        -0.741243      0.294007     -0.049231
O       0.03219      5.74242     16.00979         0.311083      0.555196     -0.264641
O       3.81292      5.73012      7.13550         0.179027      0.434652     -0.072959
O      15.49389      5.89442      7.22549         0.546505     -0.101827     -0.293130
O       3.91416      5.81117     11.63853         0.364835      0.552009     -0.215769
O       0.01615      5.73347     11.47776        -0.224986      0.530998      0.181884
O       3.86108      9.58746      2.80015        -0.150332      0.526125     -0.427950
O       3.93973      9.66028     15.85675        -0.046263     -0.042065     -0.096993
O       0.00539      9.77292      2.68007        -0.611344     -0.647268     -0.093719
O      15.59997      9.75790     15.79263         0.341667     -0.429223      0.462752
O       3.90749      9.81748      7.22234        -0.671000     -0.048277      0.127674
O      15.55469      9.77549      7.23420        -0.383171     -0.263385      0.328525
O       3.96925      9.83554     11.54071        -0.422623      0.016376      0.059729
O      15.59952      9.83669     11.60847        -0.064781     -0.708166     -0.427129
O       7.73680      1.85446      2.87262         0.447005     -0.117620     -0.153960
O       7.84993      1.89588     16.12477        -0.899440      0.156500     -0.717126
O       7.77432     13.49273      2.66524        -0.085431      0.194129     -0.071523
O       7.73716     13.51091     16.09574         0.722853      0.711026     -0.981578
O       7.73926      2.02080      7.14526         0.103419     -0.624879     -0.212929
O       7.70667     13.68754      7.10885         0.288384     -0.319638      0.329774
O       7.72630      1.88017     11.57384         1.087433      0.164281     -0.135489
O       7.79371     13.72454     11.42113         0.621137      0.044893      0.301300
O       7.86518      5.93535      2.73827        -0.774501      0.176431     -0.169133
O       7.81245      5.81976     15.91465         0.939385      0.036740     -0.096073
O       7.77268      5.90360      7.28233         0.018527     -0.142152     -0.555147
O       7.86422      5.82681     11.55655        -0.035029      0.080777     -0.062404
O       7.83138      9.79071      2.66144        -0.803933     -0.674156      0.130440
O       7.77493      9.52100     15.99148         0.550255      0.819188     -0.503604
O       7.76210      9.73511      7.18443         0.019150      0.060693      0.228907
O       7.87817      9.64943     11.46437        -0.005678      0.556190     -0.152923
O      11.55608      1.98658      2.82396         1.300183      0.037326     -0.118704
O      11.74455      1.90972     16.05656        -0.299125      0.337921     -0.195698
O      11.62687     13.55440      2.86475        -0.448455     -0.039654     -0.818661
O      11.59815     13.66761     15.92929         0.284660     -0.169589     -0.438780
O      11.64120      1.83868      7.13440         0.371413      0.290381     -0.189973
O      11.66012     13.58839      7.07053        -0.114015      0.166717     -0.041670
O      11.73349      2.03141     11.47891        -0.800821      0.052424     -0.258195
O      11.64874     13.74710     11.47634         0.180279     -0.356966      0.085925
O      11.74017      5.85014      2.73798        -0.027516     -0.767938     -0.203169
O      11.79978      5.79156     16.05779        -0.420091     -0.085282     -0.392616
O      11.66923      5.89463      7.07943        -0.211505     -0.687777      0.172154
O      11.70869      5.79165     11.62746         0.253832     -0.050758     -0.750025
O      11.76422      9.83557      2.65343        -0.127439     -0.691239     -0.292960
O      11.72795      9.67264     15.92890        -0.245862      0.050635     -0.273973
O      11.61599      9.85696      7.26312         1.033472     -0.775309     -0.561390
O      11.76391      9.74906     11.54919        -0.983634      0.115702      0.198540
O       1.82001      3.83779      2.76464         0.516528     -0.502492      0.257979
O       1.95714      3.97161     16.07756         0.292527     -1.397883     -0.627338
O       1.93853     15.51634      2.72257         0.334281      0.007130     -0.198223
O       1.86685     15.53105     16.07371         0.047266     -0.018392     -0.526862
O      13.74590      3.82031      2.87444        -0.436136      0.317626     -0.088949
O      13.70162      3.86220     15.88653        -0.369795      0.331269      0.293136
O      13.46376     15.48128      2.78190         0.199908      0.774879      0.004152
O      13.77509      0.02738     15.86351        -0.366572     -0.529769     -0.347719
O       1.87567      3.93026      7.19365        -0.339146     -0.067318     -0.488882
O       1.79889     15.56036      7.13323         0.198962      0.490183      0.003226
O      13.53626      3.84095      6.87849         0.039482      0.327926      0.442308
O      13.63593     15.50939      6.95901        -0.044938      0.790048      0.545857
O       2.02065      3.89110     11.65653        -0.186661     -0.212015     -0.311171
O       2.00046     15.56864     11.47418        -0.290853      0.575151      0.399984
O      13.66901      3.90307     11.51334         0.060728      0.181726     -0.269460
O      13.59810      0.08468     11.55669         0.492821     -0.488931      0.022591
O       1.87284      7.76427      2.73905         0.036929      0.061143      0.062003
O       1.98870      7.71284     15.94707        -0.352257      0.601860     -0.065350
O      13.64860      7.76087      2.66444         0.357470      0.018139     -0.252899
O      13.71836      7.69195     15.88750        -0.011952      0.949723      0.047635
O       1.95498      7.82759      7.16484        -0.196748     -0.424175      0.405586
O      13.54386      7.81308      7.08054         0.322824      0.339501      0.115024
O       1.92569      7.81021     11.51064        -0.001545      0.078790      0.186655
O      13.67876      7.75854     11.49054         0.207632      0.157642      0.132105
O       1.88477     11.56098      2.75625         0.255955      0.792873     -0.346243
O       2.02771     11.64666     15.94036        -0.615247     -0.245221     -0.432604
O      13.61827     11.64831      2.57854         0.310700     -0.038574      0.265189
O      13.60546     11.70716     15.86061        -0.501117     -0.443609     -0.001128
O       1.93358     11.72242      7.19097        -0.204045     -0.346668      0.229738
O      13.64117     11.67158      7.17942        -0.086670      0.079314      0.225332
O       1.87353     11.73889     11.55611         0.592571     -0.944616      0.079791
O      13.61262     11.74873     11.49642         0.017153     -0.212678     -0.100640
O       5.94436      3.83977      2.79892        -0.305260      0.708993     -0.110031
O       5.93265      3.95553     16.06109        -0.546415     -1.375723     -0.429483
O       5.84915     15.48961      2.70959        -0.268179     -0.039200     -0.237495
O       5.87781     15.55992     16.06678        -0.369333     -0.257853     -0.438699
O       5.84644      3.88129      7.06824         0.127770      0.300898      0.360775
O       5.88594      0.02389      7.21049        -0.408950     -0.188815     -0.089765
O       5.78311      3.81869     11.70590         0.680566      0.043395     -0.557009
O       5.83784     15.52502     11.49671        -0.106900      1.460729      0.151344
O       5.73052      7.79561      2.90385         0.884433     -0.205974     -0.439312
O       5.91959      7.71062     15.76559        -0.641608      0.502544      0.284091
O       5.72645      7.77250      7.21551         0.191914     -0.065754      0.072318
O       5.85341      7.87552     11.66824         0.067336     -0.551264     -0.611575
O       5.71756     11.59519      2.78387         0.386500     -0.302820     -0.466013
O       5.89525     11.62324     15.94829        -0.164640     -0.153154     -0.396578
O       5.80774     11.80979      7.24914        -0.056919     -0.365277     -0.035745
O       6.06107     11.80574     11.53059        -0.511734     -1.098740     -0.117666
O       9.64491      3.87811      2.72058         0.287492     -0.134071     -0.003480
O       9.77140      3.92317     16.14349         0.086776     -0.435577     -0.609546
O       9.79074     15.49942      2.72024        -0.270166     -0.129055     -0.069743
O       9.80432      0.00553     15.96162        -0.822867     -0.740453     -0.346791
O       9.64355      3.82963      6.97651         0.704502      1.026303      0.569974
O       9.62597     15.54217      7.04939         0.043756      0.152214      0.292914
O       9.70063      3.89078     11.50862         0.178268     -0.360333     -0.448328
O       9.81060      0.04745     11.62924        -0.616970      0.369777     -0.366495
O       9.82156      7.79698      2.74491        -0.199041      0.038159     -0.090898
O       9.87831      7.79331     15.88308        -0.103469     -0.930789      0.222887
O       9.80278      7.79965      7.05631        -0.401184     -0.136164      0.127817
O       9.91888      7.78506     11.44501        -0.397810      0.144544      0.122030
O       9.71268     11.63607      2.71167         0.217651      0.306356     -0.328394
O       9.75785     11.60879     15.87857        -0.190433      0.763816     -0.154560
O       9.73991     11.62614      7.15622        -0.701344      1.305851      0.432941
O       9.83795     11.72931     11.43516        -0.690133     -0.343297     -0.039290
