  # total energy = -7879.64864632 
CRSYTAL
PRIMVEC
    15.6000000000000000    0.0000000000000000    0.0000000000000000
     0.0000000000000000   15.6000000000000000    0.0000000000000000
     0.0000000000000000    0.0000000000000000    17.640000000000000
PRESSURE
-5.57526 -5.71382 -6.61974 -0.078125 0.478253 -0.076735
PRIMCOORD
320 1
Pb       3.80667      3.91842      4.30909         0.142478     -0.266685      0.085529
Pb       3.84715      3.82079     17.53966         0.340794     -0.162840      0.885494
Pb       4.01955      0.09251      4.35760        -0.751739      0.503207     -0.492926
Pb       3.93157     15.50237     17.50446        -0.043717      0.091509      0.790103
Pb      15.58785      3.86044      4.35840        -0.012039     -0.091140      0.631735
Pb      15.49967      3.91428     17.60449         0.221420     -0.123728      0.038338
Pb      15.56563      0.00117      4.42578         0.578484      0.116962     -0.514296
Pb       0.10635     15.50684     17.51499        -0.069782      0.081683      0.019122
Pb       3.96125      3.80542      8.72398        -0.325666     -0.155320      0.056706
Pb       3.88598     15.53409      8.74705         0.215156      0.369667     -0.175037
Pb      15.54323      3.86333      8.75058        -0.025117     -0.160277     -0.712181
Pb       0.02539     15.41053      8.86715         0.127111      0.086608     -0.654621
Pb       3.80533      3.95970     13.23389         0.253714      0.104272     -0.768648
Pb       3.77244     15.52580     13.13861         0.353381      0.224484     -0.023920
Pb      15.48496      3.85167     13.09231         0.083111     -0.083812     -0.227167
Pb      15.57888     15.57964     13.12737         0.223748     -0.001544     -0.234712
Pb       3.83535      7.72647      4.40867        -0.091584      0.338449     -0.440402
Pb       3.77347      7.70498     17.63389         0.161954      0.491313     -0.148828
Pb      15.49451      7.86005      4.39986         0.331791     -0.139483     -0.411467
Pb      15.52859      7.72705      0.00294         0.425982      0.322074     -0.272034
Pb       3.95746      7.75225      8.70111        -0.427003      0.328986      0.143929
Pb      15.55501      7.67610      8.79645         0.527052      0.354077     -0.723410
Pb       3.84152      7.70316     13.19721         0.057456     -0.190461     -0.458315
Pb      15.52792      7.80933     13.21348        -0.079493     -0.341384     -0.246370
Pb       3.88575     11.73239      4.36372         0.128295     -0.346607     -0.082118
Pb       3.88215     11.67767      0.01667         0.281416     -0.076899     -0.418149
Pb      15.53551     11.68878      4.45563         0.035132      0.176902     -0.794184
Pb      15.54147     11.68564      0.04768         0.319576     -0.357386     -0.787042
Pb       3.84310     11.61522      8.73812         0.291904     -0.223857     -0.274314
Pb      15.53235     11.71102      8.79010         0.573406     -0.002570     -0.475855
Pb       3.87947     11.74276     13.17637         0.164148     -0.243139      0.058254
Pb      15.58119     11.63967     13.11425        -0.135207      0.224941      0.456341
Pb       7.73019      3.99504      4.33951         0.247305      0.489880     -0.228083
Pb       7.72140      3.83309     17.51724        -0.265116     -0.014272      0.104521
Pb       7.84759      0.11324      4.31653        -0.002409     -0.456859     -0.272314
Pb       7.87603     15.58555     17.55331        -0.170272     -0.282257     -0.162439
Pb       7.79427      3.83252      8.80614         0.051050      0.413680     -0.185990
Pb       7.72395     15.49105      8.80635         0.512447      0.053428      0.021116
Pb       7.69718      3.93232     13.11987         0.047892     -0.436764     -0.067239
Pb       7.71759     15.48950     13.22962         0.343805      0.420095     -0.567080
Pb       7.71381      7.99079      4.35193         0.046176     -0.565926     -0.343735
Pb       7.78161      7.81589      0.05629        -0.191346      0.243383     -0.513968
Pb       7.77894      7.76963      8.77201         0.066134      0.017760     -0.344108
Pb       7.61891      7.73415     13.14232         0.409520     -0.047052     -0.014231
Pb       7.79481     11.82670      4.36578         0.224944     -0.125107     -0.311640
Pb       7.74215     11.66734      0.03906        -0.268650      0.239834     -0.075340
Pb       7.70254     11.68153      8.87186        -0.031888     -0.096129     -0.514912
Pb       7.86720     11.57538     13.24683        -0.162381     -0.069795     -0.423231
Pb      11.57120      3.98313      4.38026         0.298235     -0.187625      0.440983
Pb      11.73321      3.94767     17.56180         0.193199     -0.335381     -0.320097
Pb      11.74188      0.11394      4.43914        -0.013138      0.257607     -0.391961
Pb      11.65386     15.59186     17.58153        -0.061678     -0.163012     -0.671890
Pb      11.66789      3.87246      8.79306         0.323728     -0.489643     -0.716154
Pb      11.71432     15.57805      8.88478        -0.098140      0.480797     -0.453758
Pb      11.54637      3.88693     13.22857        -0.083369     -0.515884     -0.596000
Pb      11.70214     15.45643     13.14968        -0.743368      0.824172     -0.508568
Pb      11.60643      7.82445      4.41582         0.210994     -0.217179     -0.451092
Pb      11.53186      7.85288     17.63616         0.159312      0.154189     -0.318356
Pb      11.70160      7.74694      8.75082        -0.268327      0.040681     -0.641366
Pb      11.60897      7.79882     13.20734         0.073969     -0.312642     -0.355081
Pb      11.73440     11.93295      4.38873         0.160686     -0.316610     -0.709222
Pb      11.77447     11.70844     17.61450        -0.012487      0.195030     -0.431718
Pb      11.71130     11.60355      8.69929        -0.161999      0.041493      0.535934
Pb      11.73292     11.67970     13.09398        -0.061186     -0.236360     -0.239725
Ti       1.91017      2.04312      2.38366         1.215805     -1.585300     -1.356062
Ti       1.84075      1.94771     15.50104         1.060889     -0.318478     -0.215694
Ti       2.01146     13.70099      2.29332        -0.869795      1.110443      0.010496
Ti       1.97305     13.60386     15.57699        -0.242567     -1.018275     -1.346063
Ti      13.64308      1.91675      2.33580         0.009371      0.126739     -0.389614
Ti      13.59030      1.87526     15.52775        -0.319956      0.141655     -0.424465
Ti      13.76172     13.71318      2.21666        -0.764987     -0.692550      1.809222
Ti      13.66883     13.60347     15.43355         0.007802     -0.143413      1.571481
Ti       2.04948      1.87792      6.83447         0.012745      0.067948     -0.551499
Ti       2.16885     13.54866      6.58867        -2.312929      0.825048      1.298167
Ti      13.81050      1.80656      6.87052        -1.769327      0.788996      0.237139
Ti      13.78664     13.59013      6.77829         0.151494      0.563518      0.060377
Ti       1.97764      1.92893     11.11158         0.238995      0.057714     -0.590701
Ti       1.97687     13.50122     11.17539        -0.278572      0.969739     -0.811100
Ti      13.64919      1.90613     11.15435        -0.648855     -0.207734     -0.271655
Ti      13.65309     13.59521     11.12766         0.317303     -0.260702     -1.192468
Ti       1.96903      5.87969      2.34635        -0.230722      0.439688     -0.079894
Ti       1.93504      5.77616     15.58507        -0.303396      0.938063     -0.867157
Ti      13.72979      5.77301      2.44558        -0.554168      0.394304     -0.657092
Ti      13.66329      5.84127     15.57409         0.155596      0.009991      0.115648
Ti       1.97070      5.79389      6.74452        -0.196128     -0.050322     -1.085823
Ti      13.60732      5.80403      6.70950        -0.129913     -0.409545     -0.138062
Ti       1.82131      5.79705     11.11911         0.487421      0.137229      0.173575
Ti      13.56242      5.83071     11.07213         0.189219     -1.068998      0.188692
Ti       2.02259      9.82659      2.37564        -0.913080     -0.750861     -0.443665
Ti       1.95637      9.74128     15.61337        -0.169893      0.416561      0.617614
Ti      13.71903      9.77353      2.37568        -0.342282      0.183779     -1.051591
Ti      13.63168      9.69883     15.70600         0.290049      0.525114     -0.739803
Ti       1.90111      9.67738      6.72799         0.620681      0.013641      0.076149
Ti      13.70672      9.72170      6.79249        -0.236754     -0.672985     -0.045429
Ti       1.96585      9.69209     11.19228         0.425483     -1.026085     -2.125800
Ti      13.65657      9.66082     11.12238        -0.252068      0.796861     -0.594473
Ti       5.95346      2.05437      2.38803        -1.439528     -0.651682     -1.860409
Ti       5.75905      1.90490     15.64026         1.482241      0.063020     -0.064451
Ti       5.80940     13.67536      2.39946         1.697955     -0.010719     -1.567050
Ti       5.90215     13.58773     15.62262        -0.024437     -0.029227     -0.505183
Ti       5.95534      1.96696      6.82471        -1.040095      0.036055     -0.102158
Ti       5.96788     13.66733      6.68999        -0.065915     -0.394336      0.736380
Ti       5.80658      1.87278     11.26384         0.294173      0.233502     -1.089995
Ti       5.89214     13.52433     11.23320        -0.277136      0.547478     -1.239041
Ti       5.77778      5.82765      2.25054         1.178451      0.663733     -0.141326
Ti       5.78416      5.86834     15.67589         0.043500     -0.337233     -1.562160
Ti       5.86543      5.78870      6.73524        -0.126527      0.844161      0.001978
Ti       5.84059      5.81981     11.12241        -0.144774     -0.377158     -0.610458
Ti       5.84960      9.79799      2.45412        -0.183659     -0.162277     -1.561002
Ti       5.86597      9.72560     15.63444        -0.025135      0.719595     -0.146198
Ti       5.82315      9.69586      6.80893         0.181748      0.602141     -0.647608
Ti       5.87032      9.69174     11.19277        -0.739192      0.432532     -2.531126
Ti       9.77288      1.95693      2.35194         0.456164     -0.086355     -0.565363
Ti       9.68483      1.99111     15.55640         0.870093     -1.309185     -1.918944
Ti       9.78851     13.67263      2.32641        -0.235416      0.230429     -0.051914
Ti       9.76309     13.58672     15.50941         0.093631      0.889949     -0.066129
Ti       9.79317      1.90436      6.81643         1.150498      0.001496      0.500827
Ti       9.89093     13.62835      6.76343        -0.458645      0.572188      0.126938
Ti       9.75410      1.89118     11.13583         0.064723     -1.184586      1.766935
Ti       9.75568     13.52649     11.12219        -0.506327      1.333242     -1.038172
Ti       9.75995      5.87490      2.22247        -0.785159     -0.009472      0.491818
Ti       9.67427      5.84588     15.62171        -0.051416      0.485681     -1.229168
Ti       9.71948      5.83624      6.86096         0.125725     -0.208976     -0.328777
Ti       9.74770      5.79018     11.10332        -0.802388      0.157699     -0.993164
Ti       9.81268      9.79590      2.37891        -0.129310      0.458520     -0.487693
Ti       9.69739      9.80177     15.54928        -0.298157     -0.056190      0.249075
Ti       9.76717      9.81805      6.74251        -0.554768     -1.517957      0.338029
Ti       9.77986      9.62871     11.15552        -0.606189      1.539024     -0.706627
O       2.02971      2.01115      0.59825        -0.555560     -0.022085      0.748045
O       1.89225      1.89818     13.67294        -0.086218      0.408857      2.570033
O       2.02392     13.79244      0.49738        -0.162297     -0.475882      0.681886
O       1.87802     13.51686     13.68398         0.939275      0.017820      1.641148
O      13.70060      2.06345      0.54463        -0.155111     -0.128752      1.261234
O      13.62477      1.81823     13.70716        -0.140426      0.330129      1.733565
O      13.58825     13.58791      0.50954         0.315212      0.038854     -0.916943
O      13.70394     13.60831     13.68281        -0.370642     -0.203392      0.107927
O       2.00672      1.85903      5.05353         0.042030      0.218032     -0.223184
O       2.05061     13.68756      4.85466        -0.059218     -0.302472     -0.161494
O      13.74369      1.76011      5.11583        -0.086260     -0.240742     -0.802344
O      13.87884     13.54838      4.99152        -0.423386      0.337481      0.315300
O       2.13929      1.97884      9.29286        -0.695262     -0.360474      1.032562
O       2.04877     13.63133      9.36024        -0.223708     -0.143563      1.710745
O      13.68620      1.76070      9.36772         0.112441      0.240924      0.691894
O      13.80767     13.55666      9.26945        -0.020693      0.077281      1.641771
O       2.03145      5.80454      0.57153        -0.391666      0.169882      0.495443
O       1.93751      5.80211     13.75414        -0.010614     -0.149476      1.079372
O      13.82280      5.63688      0.60287        -0.577442      0.349002      1.548064
O      13.71439      6.06573     13.84200        -0.318367     -0.404927     -0.372052
O       2.01688      5.81828      4.91466         0.181957      0.193442      1.084534
O      13.53811      5.87411      4.93156         0.133702     -0.066098      0.070485
O       1.76345      5.91413      9.34388         0.147404     -0.480698      0.999715
O      13.63803      5.77076      9.30847         0.123217      0.168075      0.570648
O       1.88150      9.68543      0.61683         0.255993      0.333105      0.262512
O       2.00170      9.82468     13.84133        -0.196830     -0.255280      0.125468
O      13.68755      9.83028      0.52357        -0.024568     -0.116526      1.370726
O      13.65283      9.75581     13.92747        -0.127433     -0.489784      0.004244
O       2.04063      9.67344      4.94132        -0.373863     -0.062363      0.388532
O      13.73697      9.65995      5.02995        -0.000093      0.159118     -0.260334
O       1.95263      9.47870      9.38786        -0.175446      0.902609      1.743655
O      13.66997      9.70443      9.34725         0.077075     -0.075628      0.536232
O       5.99795      2.09241      0.59349        -0.107344     -0.143495      0.384315
O       5.87468      1.90637     13.90242        -0.447836      0.008971     -0.159461
O       5.96927     13.44965      0.56825        -0.335845      0.477117      1.993139
O       5.82424     13.64713     13.81758         0.002011     -0.385916      0.226597
O       5.94648      2.01397      5.07421        -0.010496      0.054569     -0.719731
O       6.00268     13.65542      4.95029        -0.204171      0.335486     -0.065638
O       5.79355      1.86569      9.46975         0.255463      0.174801      0.525519
O       5.84267     13.58914      9.40635         0.139269     -0.046910      0.848543
O       5.83428      5.84432      0.45915        -0.002843     -0.035797      0.373795
O       5.71254      5.83701     13.80260         0.523951      0.356112      1.154186
O       5.90564      5.84188      4.93818        -0.089012     -0.150280      0.699584
O       5.99514      5.87049      9.34534        -0.638708     -0.032205      1.272048
O       5.88705      9.97453      0.65720         0.024611     -0.261162      0.807984
O       5.97764      9.71976     13.84086        -0.310471      0.085559      0.337886
O       5.78121      9.72887      5.00367         0.007694     -0.471551      0.385533
O       5.76314      9.81855      9.26347         0.347927     -0.327201      1.551691
O       9.80672      1.96098      0.57267        -0.095095      0.087743      0.304915
O       9.94841      1.94004     13.71611        -0.461873      0.362728      1.758025
O       9.75588     13.78447      0.54222         0.227454     -0.312441      0.576410
O       9.83006     13.71898     13.74214        -0.205582     -0.555616      0.027674
O       9.92447      1.88061      5.03524        -0.355423     -0.120318      0.365282
O       9.88773     13.64001      4.94502         0.053435      0.074925      1.514393
O       9.87478      1.74548      9.42233        -0.688785      0.511723     -0.647697
O       9.58122     13.56573      9.31960         0.461321     -0.238186      1.092251
O       9.79556      5.85022      0.41216         0.017055     -0.054639      0.770694
O       9.73413      5.94252     13.78176         0.246930     -0.012189      1.325812
O       9.71980      5.73901      5.09216        -0.080053      0.212174      0.146865
O       9.67554      5.84014      9.29199         0.240256     -0.217386      1.301526
O       9.80817      9.79398      0.58737         0.002026     -0.202317      0.942222
O       9.50826      9.79454     13.76506         0.711871     -0.515895      0.148947
O       9.78189      9.60403      4.97409         0.054063      0.500645      0.240267
O       9.76916      9.78413      9.40169        -0.004575     -0.157168      0.008800
O       3.91191      1.96063      2.70916         0.171376      0.199542      0.748530
O       3.97436      1.87267     16.11697        -1.477576      0.012306     -0.688222
O       3.98160     13.72966      2.79514        -0.138199     -0.227123     -0.271903
O       3.98543     13.57651     16.12118        -0.823872     -0.204422     -0.774287
O       0.04464      1.89187      2.85481        -0.982939      0.197600     -0.240388
O       0.06906      1.89597     16.03602         0.034903     -0.124951     -0.785986
O       0.01163     13.68973      2.58056         0.597018      0.029391      0.139994
O       0.05551     13.62610     15.82713        -0.751069      0.298506      0.511197
O       3.98927      1.95529      7.22073        -0.133160      0.485157      0.086920
O       3.90889     13.55506      7.08046         1.627694     -0.110871     -0.032175
O       0.01021      1.81669      7.22671         1.243142      0.237780      0.315416
O       0.10539     13.64988      7.21580        -0.092984     -0.015984     -0.206920
O       3.87593      1.96527     11.53569        -0.253858      0.108759      0.511572
O       3.93421     13.61844     11.68653        -0.934802     -0.379490     -0.335723
O      15.52435      1.98919     11.61771         0.470331     -0.448156     -0.402349
O       0.03420     13.48981     11.57466        -0.016438      0.466687     -0.521624
O       3.89154      5.78265      2.63789        -0.340349      0.149302      0.433257
O       3.93434      5.93043     15.87676        -0.782523     -0.247372      0.567416
O      15.55060      5.73405      2.84602         0.119818      0.564540     -0.314194
O       0.02162      5.79771     16.00026         0.434978      0.120634      0.026848
O       3.89588      5.86415      7.10215         0.130786     -0.146349      0.136853
O       0.01801      5.71094      6.98112        -0.305593      0.274762      0.661104
O       3.87844      5.72520     11.56597        -0.684262      0.444474     -0.232799
O      15.47540      5.75178     11.58355         0.812227      0.238604     -0.280701
O       3.87993      9.74687      2.73839         0.420857      0.250948      0.376844
O       3.83344      9.77189     16.11476         0.411964      0.122102     -0.448238
O       0.06599      9.73382      2.79139        -0.792269      0.229982      0.243038
O       0.00984      9.84480     16.09355         0.182427     -0.931409     -0.225396
O       3.78158      9.73422      7.18491         1.293082     -0.146395      0.031658
O      15.59105      9.60139      7.20396        -0.325821      0.184615     -0.137677
O       3.95165      9.58468     11.52285        -1.259163      0.948929      0.472644
O      15.52774      9.84942     11.58913         0.418456     -1.000544     -0.142046
O       7.78152      2.08852      2.71644         1.337023     -0.175060      0.581630
O       7.79521      1.92856     15.96400         0.090715      0.125068      0.145454
O       7.91376     13.66151      2.77196        -0.690192     -0.243722      0.335780
O       7.83119     13.62143     15.92236         0.593482      0.171750      0.089317
O       7.82527      1.93494      7.22381         0.270310     -0.103086      0.088502
O       7.85816     13.72078      7.18168        -0.761951     -0.407132     -0.508695
O       7.79475      1.87873     11.70669        -0.172494      0.203932     -0.392017
O       7.74019     13.61263     11.51578         0.424685      0.008234      0.441232
O       7.77538      5.81551      2.65523         0.621820     -0.372318     -0.051566
O       7.75472      5.84586     15.91960         0.450638      0.330625      0.235638
O       7.70907      5.80693      7.29860         1.146374      0.065497     -0.578071
O       7.81417      5.81752     11.56079        -0.207798      0.211413      0.121920
O       7.73114      9.87045      2.73253         0.983789     -0.701311      0.543766
O       7.82168      9.71416     16.03386        -0.376323      0.222495      0.259205
O       7.81878      9.61014      7.06737         0.220249      0.371620      0.156202
O       7.73919      9.69493     11.45477         0.574007      0.173261      0.526288
O      11.74904      1.88035      2.83762        -0.088655     -0.075311     -0.307168
O      11.71623      1.92082     16.06970         0.496432      0.720848     -0.465676
O      11.74876     13.52634      2.70631        -0.287737      0.573976      0.104036
O      11.71288     13.62113     15.94589         0.455752     -0.048031     -0.180618
O      11.69681      1.83200      7.31543        -0.223195      0.022600     -0.162723
O      11.81355     13.41642      7.18862        -0.898481      0.817833     -0.622077
O      11.67857      1.77896     11.48249         0.477980      0.302155      0.345257
O      11.69428     13.57961     11.36836         0.683138      0.248765      0.393709
O      11.58797      6.02277      2.77675         0.569569     -1.037356     -0.338874
O      11.74892      5.78788     15.92081        -0.446077      0.087529      0.248988
O      11.70696      5.75286      7.17286        -0.350359     -0.003535      0.207346
O      11.62591      5.79119     11.52864         0.588967      0.713111      0.170398
O      11.76027      9.79380      2.72399        -0.487136     -0.209849      0.122159
O      11.60402      9.75131     16.00272         0.876254     -0.275332      0.025444
O      11.72798      9.68204      7.30179        -0.048072      0.390398     -0.696788
O      11.68128      9.76960     11.55863         0.613317     -0.742695      0.422036
O       1.85312      3.93882      2.84057         0.488594     -0.339825     -0.191760
O       2.08026      3.91239     16.10111        -0.640283     -1.064474     -1.434231
O       1.99085     15.59239      2.70088         0.003074      0.045214      0.349797
O       2.06244     15.47758     15.97219        -0.405439      1.512151     -0.388183
O      13.60266      3.82198      2.95600         0.049077      0.609636     -0.791345
O      13.80602      3.86451     15.96499        -0.790072     -0.432065     -0.444467
O      13.59811     15.58704      2.63156         0.390349      0.228738      0.299001
O      13.65175     15.56471     15.99995         0.221651      0.087152     -0.483216
O       2.02033      3.80907      7.08979        -0.240954      1.251666      0.469979
O       2.17045     15.59840      7.02785        -0.423922     -1.316950      0.563091
O      13.56213      3.79908      7.21475         0.737331      0.239711      0.085591
O      13.66679     15.51134      7.21650        -0.004350     -0.775515      0.027691
O       1.86153      3.79344     11.57061        -0.033949      1.547387     -0.110202
O       1.88830      0.06551     11.60048         0.094793     -1.161612     -0.382537
O      13.56281      3.81669     11.47863        -0.059126      0.791234      0.259021
O      13.74885     15.49270     11.60212        -0.234173     -0.349370     -0.488623
O       1.92515      7.78718      2.69234         0.223765     -0.630665      0.345870
O       2.02314      7.66905     16.05090        -0.771576      1.126013     -0.323381
O      13.67167      7.80632      2.74712         0.312901     -0.146359     -0.063694
O      13.74445      7.76344     16.02570        -0.331526      0.194441      0.346592
O       1.95887      7.77927      7.20516        -0.269654     -0.844388     -0.415051
O      13.56019      7.68857      7.10837         0.433832      0.485356      0.347559
O       1.89389      7.78792     11.58397        -0.383545     -0.864507      0.375453
O      13.66745      7.71258     11.50129        -0.227227      0.854374      0.135361
O       2.01291     11.78531      2.74076         0.048922     -0.455692     -0.109681
O       1.91657     11.71434     16.11975         0.391527     -0.116569     -0.414847
O      13.76952     11.73674      2.79960        -0.088455     -0.744687     -0.018938
O      13.67124     11.65101     16.01631        -0.260310      0.974712     -0.062182
O       1.90586     11.62409      7.12162         0.017820      0.372214     -0.226524
O      13.77144     11.65262      7.03503         0.126045     -0.550527      0.577953
O       1.93057     11.63120     11.43048         0.689759     -0.051724      0.331412
O      13.58990     11.65400     11.51990         0.089476      0.093405      0.171953
O       5.84102      3.94517      2.74932        -0.056657     -0.024763      0.255886
O       5.73616      3.92130     15.97097         0.603465     -0.227985      0.056414
O       6.04496      0.02941      2.69466        -0.597023     -0.119736      0.387595
O       5.90964     15.45043     16.11115        -0.105196      1.481044     -0.258212
O       5.84663      3.96361      7.27865         0.243541     -0.971039     -0.269356
O       5.74985      0.10273      7.12081         0.653248     -2.128259      0.108301
O       5.89692      3.91031     11.54554        -0.118598     -0.142054      0.321205
O       5.71603      0.00751     11.67967         0.594383     -0.690969     -0.044437
O       5.82822      7.78770      2.62797         0.061991      0.123323      0.451663
O       5.81142      7.92200     16.09236         0.252596     -1.142927      0.010409
O       5.85461      7.77294      7.19161        -0.272422      0.083760     -0.210448
O       5.76737      7.79762     11.54682         0.554039     -1.083986      0.291349
O       5.88909     11.73917      2.98143        -0.573104      0.343831     -0.458779
O       5.93451     11.70358     16.09806        -0.281388     -0.862889     -0.458009
O       5.90242     11.67221      7.06940        -0.039626      0.550893      0.276791
O       5.89530     11.61040     11.51287        -0.544739      0.627026      0.543648
O       9.88148      3.79646      2.82557        -0.544600      1.476603     -0.608588
O       9.66504      3.89125     15.84858         0.540222      0.611247      0.346702
O       9.65463      0.05891      2.75892         0.687927     -0.266197      0.108087
O       9.81747      0.03917     15.85215        -0.323307     -0.168902      0.691676
O       9.76322      3.82629      7.27729        -0.217786     -0.068993     -0.035158
O       9.78410     15.54392      7.31079         0.204333     -0.716425     -0.766513
O       9.78492      3.88016     11.53402        -0.179209      0.050407     -0.008368
O       9.73643     15.51359     11.55141        -0.084508     -0.319830      0.115401
O       9.64388      7.76772      2.69411         0.148128      0.691189     -0.112331
O       9.71207      7.85531     16.13808         0.241505     -0.890143     -0.523208
O       9.83348      7.71561      7.18553        -0.217010      0.540998      0.108439
O       9.66417      7.82706     11.41501         0.604352     -1.446835      0.699248
O       9.70299     11.71082      2.77635         0.509848     -0.347784     -0.085088
O       9.72527     11.71118     15.81762         0.131188     -0.345082      0.293980
O       9.75437     11.64905      7.19717        -0.037088      0.426243     -0.472838
O       9.83019     11.67680     11.57740        -0.791365     -0.120245      0.327414
