  # total energy = -7878.87724274 
CRSYTAL
PRIMVEC
    15.2000000000000000    0.0000000000000000    0.0000000000000000
     0.0000000000000000   15.2000000000000000    0.0000000000000000
     0.0000000000000000    0.0000000000000000    17.000000000000000
PRESSURE
7.8043 7.64675 0.602672 -0.073533 -0.022424 0.050793
PRIMCOORD
320 1
Pb       3.67622      3.94421      4.36745         0.139922     -0.595368     -0.876205
Pb       3.80010      3.89824      0.06943         0.079814     -0.458835     -0.174756
Pb       3.70640      0.11317      4.37714         0.106718      0.213971     -0.301779
Pb       4.01089     15.17977      0.06624        -0.557119     -0.008885     -0.136411
Pb      15.16560      4.10280      4.34986         0.074633     -0.876045     -0.722018
Pb      15.14978      3.77765     16.92495         0.473153     -0.135477      0.462346
Pb       0.07202      0.16376      4.21203        -0.713367     -0.285642      0.143930
Pb       0.10813     15.16825     16.88890        -0.358754     -0.451338      0.376202
Pb       3.94986      3.60094      8.51550        -0.266499      0.504883     -0.780269
Pb       3.80764     15.11014      8.46286        -0.281337      0.035000     -0.512370
Pb      15.11894      3.76429      8.44288        -0.087139     -0.321127      0.664307
Pb       0.01136     15.14931      8.71368        -0.633485     -0.025232     -0.796931
Pb       3.78900      3.76291     12.74994         0.427722      0.110283     -0.009664
Pb       3.84997     15.04893     12.77038         0.132176      0.216465     -0.082979
Pb       0.15934      3.57855     12.81266        -0.684810      0.385014     -0.666898
Pb       0.04308     15.04886     12.70961        -0.302150      0.500331     -0.226970
Pb       3.71198      7.62326      4.32915        -0.303013      0.217688     -0.010976
Pb       3.87483      7.70245      0.26437        -0.266383     -0.296129     -1.101878
Pb      15.13061      7.64664      4.15891         0.430549      0.133108      0.409571
Pb       0.14321      7.60716     16.95144        -0.628717     -0.091708     -0.000552
Pb       3.76442      7.51156      8.45644        -0.019604      0.315940      0.231189
Pb      15.00273      7.54624      8.50428         0.631306      0.131117     -0.220339
Pb       3.69334      7.52085     12.74617         0.283356      0.282289     -0.499232
Pb      15.10126      7.44267     12.74712         0.425849      0.285286     -0.336969
Pb       3.56324     11.65183      4.30772         0.377564     -0.947916      0.440406
Pb       3.95706     11.41425      0.04289        -0.567894      0.180327      0.127540
Pb      14.94373     11.57906      4.32647         0.690094     -0.536217     -0.173169
Pb       0.05810     11.45236     16.91353        -0.245738      0.197729     -0.032094
Pb       3.78346     11.44731      8.41538        -0.349105     -0.400812      0.426989
Pb      15.03346     11.25417      8.64061         0.056325      0.539503     -0.481515
Pb       3.64148     11.21440     12.83138         0.212348     -0.019629     -0.427130
Pb      15.11942     11.29250     12.59204        -0.042473      0.012699      0.325867
Pb       7.57328      3.75649      4.11975         0.597107     -0.174727     -0.114716
Pb       7.67085      3.87216      0.06853        -0.716886     -0.359109     -0.009630
Pb       7.51043      0.00421      4.23321         0.850662      0.077031      0.053493
Pb       7.57491     15.11072      0.09777         0.008569     -0.267276     -0.510131
Pb       7.81300      3.79291      8.20271        -0.686828      0.024490      0.740564
Pb       7.50990     15.12624      8.43476         0.750287      0.183983      0.021998
Pb       7.44911      3.69736     12.66717         0.205566      0.517597      0.147004
Pb       7.60649      0.15943     12.67673        -0.295271     -0.341553      0.350437
Pb       7.65574      7.54916      4.41075         0.112529      0.174250     -0.809882
Pb       7.52572      7.57594     16.98857         0.254445      0.275133      0.032647
Pb       7.62722      7.60869      8.43877         0.131346      0.090306      0.259070
Pb       7.59799      7.55188     12.77639        -0.243825     -0.383408     -0.483072
Pb       7.52446     11.28327      4.11754         0.017378      0.553924      0.435926
Pb       7.66476     11.42742      0.05720        -0.192326      0.205836      0.003700
Pb       7.43884     11.45557      8.31081         0.592917     -0.483345      0.375001
Pb       7.49883     11.32970     12.70486        -0.041082     -0.195105      0.058879
Pb      11.47607      3.87194      4.04279        -0.575512     -0.469872      0.247083
Pb      11.49507      3.84194      0.00362        -0.650812     -0.395840      0.023410
Pb      11.46736     15.19942      4.24784        -0.047448      0.490250     -0.118239
Pb      11.38812     15.07196     16.94291         0.132249      0.193098     -0.258735
Pb      11.40674      3.66030      8.41695         0.026501      0.260104     -0.147093
Pb      11.22208     15.12699      8.63980         0.650194      0.437273     -0.642872
Pb      11.38759      3.73747     12.73386        -0.023541      0.395766      0.118291
Pb      11.30956      0.07764     12.85941         0.290464     -0.084098     -0.438285
Pb      11.54274      7.56317      4.11415        -0.669734      0.089538      0.125920
Pb      11.33283      7.57261     16.94572         0.186935     -0.075623     -0.613994
Pb      11.40192      7.59680      8.35690        -0.694710      0.092232      0.980286
Pb      11.27226      7.48419     12.62554        -0.073617     -0.121301      0.670951
Pb      11.46531     11.46113      4.20374        -0.157136     -0.556242      0.159681
Pb      11.47191     11.30600     16.93419        -0.198155      0.265177      0.090968
Pb      11.26553     11.46015      8.66486         0.376094     -0.454335     -0.746180
Pb      11.29860     11.15070     12.90367         0.303480      0.412683     -0.360792
Ti       1.84375      1.93705      2.16035         0.514045      0.431815      0.251494
Ti       1.93517      1.82014     15.05718         0.972324      0.598206      0.106688
Ti       1.79245     13.35352      2.36553         0.309915     -0.604340     -1.859175
Ti       1.95226     13.24862     14.94334        -0.050341     -0.763858     -0.501545
Ti      13.30296      1.91319      2.13350         0.209617     -0.860313     -0.064708
Ti      13.29501      1.87313     14.97602         0.026254     -0.628133     -0.613302
Ti      13.26556     13.32847      2.09734         1.185318     -0.534147     -0.067360
Ti      13.29712     13.30477     14.84536         0.619131     -0.642451      1.467786
Ti       1.79827      1.92913      6.47002         0.773864     -1.280011      0.079708
Ti       1.79897     13.33962      6.62304        -0.340103     -0.770760     -0.580790
Ti      13.29261      1.90465      6.41476        -0.637622     -1.361530     -0.528407
Ti      13.27755     13.34605      6.60661         0.899294     -0.428089      0.244248
Ti       1.96999      1.87542     10.66621        -1.521148     -0.408663      0.212842
Ti       1.95968     13.30176     10.77144        -0.133528     -1.077649     -0.663862
Ti      13.26494      1.89508     10.75818         1.103245      0.154015     -0.358698
Ti      13.21209     13.25984     10.78167         0.871744      0.216759     -0.135908
Ti       1.90415      5.76649      2.20482        -0.512314     -0.991469     -0.498393
Ti       1.89878      5.65484     15.01971         0.047728      0.407383      0.387524
Ti      13.30971      5.66350      2.07554         0.037217      0.807431      1.601478
Ti      13.28883      5.57159     14.93803        -0.888393      2.632153     -0.470631
Ti       1.92793      5.61170      6.60168        -0.825335      1.741490     -0.505092
Ti      13.23271      5.70537      6.51760         0.555216     -0.193159     -0.898988
Ti       1.91553      5.62029     10.63771        -0.137920      0.180505     -0.014125
Ti      13.30333      5.64895     10.68507        -0.082996     -0.766269     -0.346415
Ti       1.86417      9.54800      2.27358        -0.680790      0.103175     -0.281321
Ti       1.84026      9.47003     15.01442         1.113949     -0.157240     -1.119913
Ti      13.23773      9.46239      2.15666         1.120393      0.836624     -0.979589
Ti      13.26874      9.45515     15.00594        -0.440919     -0.608032     -0.304783
Ti       1.79993      9.51431      6.55833         0.052625     -0.439033     -0.119048
Ti      13.22175      9.54537      6.48434         0.441030      0.381082     -0.655740
Ti       1.83705      9.46728     10.70094         0.750693     -0.488892      0.222502
Ti      13.13221      9.38323     10.71423         0.769856      1.054786     -0.357898
Ti       5.64930      1.92109      2.25883         0.212402      0.167909     -0.153542
Ti       5.74012      1.91698     15.08761        -0.779316     -0.240808     -0.829232
Ti       5.61978     13.31135      2.37445         0.565257     -0.273153     -0.622025
Ti       5.70321     13.21166     14.95319         0.485939      0.679215      0.646166
Ti       5.77558      1.88903      6.38029        -1.643118      0.082972     -0.105335
Ti       5.70657     13.32617      6.43419        -0.416335     -0.135289     -0.994500
Ti       5.61146      1.80575     10.60291         1.635007      0.935426     -0.010202
Ti       5.79456     13.21570     10.64703        -1.213960      0.276592     -0.153212
Ti       5.69313      5.74257      2.28012         0.001681     -0.513262     -0.835267
Ti       5.63547      5.68927     15.00089         0.708120     -0.052670     -0.590713
Ti       5.72532      5.67908      6.37991         0.029476     -0.275311      0.255146
Ti       5.72593      5.63749     10.57285        -0.391718      0.789232     -0.229656
Ti       5.53274      9.49422      2.35609         1.568707      0.860547      0.569759
Ti       5.64187      9.51031     15.01584        -0.161942     -0.317618     -1.751649
Ti       5.60140      9.44377      6.48086         0.156581      0.601204     -0.597364
Ti       5.68072      9.42606     10.69239        -1.113876     -0.175758     -0.045873
Ti       9.52139      1.84812      2.09617        -1.135313      0.727175      0.599892
Ti       9.46343      1.88605     15.12845         0.178467     -0.097936     -1.021445
Ti       9.55056     13.30568      2.33291        -0.894138     -1.132509     -0.800266
Ti       9.52375     13.22054     14.89355        -0.633215      0.364353     -0.165650
Ti       9.52017      1.79976      6.39503         0.674265      0.536081     -1.879742
Ti       9.60708     13.29899      6.45813        -1.036021      0.413386      0.372105
Ti       9.49996      1.91101     10.72793        -0.546089     -0.113967     -0.895131
Ti       9.52475     13.28098     10.75202        -0.850358     -0.060726     -0.642203
Ti       9.43965      5.71121      2.13445         1.437792     -0.392147      0.780170
Ti       9.43614      5.62009     15.00104         0.517298      1.235289     -1.421106
Ti       9.55796      5.71368      6.36404         0.004901     -0.207578     -0.644408
Ti       9.51106      5.60595     10.69856        -0.658307      1.550914     -0.445021
Ti       9.43582      9.49045      2.20336         0.470200     -0.018877     -0.406303
Ti       9.40857      9.50356     15.01787        -0.009418     -1.394448      0.628710
Ti       9.47244      9.53930      6.42969         0.499892     -0.728968      0.838390
Ti       9.37763      9.49926     10.70694        -0.300036     -1.190308     -1.247498
O       1.88344      1.86752      0.35751        -0.128094     -0.374249      0.855960
O       1.87314      1.95000     13.22858         0.299148     -0.380808      0.733543
O       1.77993     13.21411      0.53827         0.061865      0.409025      0.129101
O       2.05439     13.27137     13.12596        -0.541045      0.192886      0.150963
O      13.27446      1.86405      0.33930         0.276805      0.099655      0.511418
O      13.29815      2.02458     13.15247        -0.100608     -0.669694      0.662522
O      13.26960     13.21836      0.29130         0.119085      0.297804      0.633035
O      13.34010     13.24921     13.12117        -0.253697      0.312208     -1.398214
O       1.82633      1.89460      4.67124        -0.094938      0.176756      0.240821
O       1.81278     13.28818      4.76681         0.063510      0.275914      0.008545
O      13.25032      1.86775      4.60183         0.227778     -0.135614      0.161196
O      13.31068     13.28670      4.79752        -0.181333     -0.054472     -0.258023
O       1.91901      1.91108      8.88642         0.114527     -0.184032      0.250067
O       1.96880     13.34798      8.95461        -0.384859      0.049304      0.071612
O      13.31312      1.99247      8.94965        -0.550590     -0.276047      0.119954
O      13.31984     13.28513      8.97671        -0.392522     -0.158701      0.588737
O       1.98824      5.77885      0.38259        -0.331887      0.064331      0.691163
O       1.84219      5.61008     13.22531         0.172123     -0.073234      0.253238
O      13.23590      5.61968      0.37440         0.130936      0.082382     -1.739672
O      13.19216      5.83324     13.14144         0.341794     -0.781265      0.325090
O       1.71181      5.67289      4.70900         0.858796     -0.303025      0.933584
O      13.25040      5.70012      4.64652         0.096932     -0.013539      0.771255
O       2.04078      5.52870      8.84409        -0.532941      0.225171      0.333841
O      13.17349      5.65937      8.85451         0.367891     -0.163039      0.070274
O       2.02678      9.29818      0.43314        -0.652612      0.848395      0.895121
O       1.95062      9.42948     13.19047        -0.313954      0.098661     -0.057094
O      13.26862      9.54928      0.31140         0.002462     -0.264142      0.599660
O      13.10682      9.47818     13.19261         0.428842     -0.369553      0.013872
O       1.74617      9.44917      4.78862         0.328202     -0.014452     -0.289104
O      13.17057      9.58757      4.62812         0.490802     -0.450847      0.769370
O       1.98252      9.43675      8.93774        -0.557256     -0.039595      0.010648
O      13.21783      9.42139      8.89905         0.092127      0.111683      0.988415
O       5.68451      1.82309      0.43872        -0.132143     -0.124484      0.371431
O       5.75574      1.85252     13.22203        -0.174386      0.166781      0.795196
O       5.70817     13.21400      0.51341        -0.322892      0.612193      0.605692
O       5.68835     13.16040     13.20183         0.026821      0.284636     -1.180647
O       5.71301      1.88578      4.58771         0.082879      0.034282     -0.068386
O       5.53634     13.27681      4.61073         0.459442      0.333674      0.752739
O       5.73314      1.88233      8.77399        -0.345878     -0.196190      0.913807
O       5.79304     13.36722      8.80691        -0.387835     -0.059993      0.554992
O       5.68083      5.69751      0.41830        -0.093433      0.286131      1.058364
O       5.70643      5.62635     13.18919        -0.120921      0.102821      0.898504
O       5.65661      5.72827      4.55387         0.032537      0.117550      0.689687
O       5.65545      5.68779      8.73138         0.396595     -0.358468      1.052360
O       5.57807      9.48949      0.57024        -0.119339      0.192493     -0.993535
O       5.73209      9.55198     13.12556        -0.147789      0.241335      1.581139
O       5.69000      9.51103      4.66906        -0.127586     -0.379040      0.534677
O       5.64469      9.46461      8.89990         0.279946     -0.086496     -0.421025
O       9.40617      2.03831      0.29637         0.507612     -0.861294      0.072845
O       9.40287      1.95107     13.21547         0.447704     -0.728021      0.650659
O       9.52776     13.20378      0.52853         0.088704     -0.082967     -0.140681
O       9.53955     13.25548     13.10204        -0.344553      0.337061     -0.145203
O       9.50048      1.66950      4.57718         0.069605      0.363593      0.672023
O       9.68124     13.42590      4.71697         0.008683     -0.192958     -0.825208
O       9.51210      1.82575      8.89765         0.070606      0.796728      0.715483
O       9.49834     13.33477      8.86304         0.067420     -0.312336      1.163163
O       9.43755      5.55152      0.37238         0.186172      0.327007     -0.644494
O       9.45502      5.75370     13.12282         0.107986     -0.328164      1.100744
O       9.53071      5.79146      4.56435         0.315963     -0.049619      0.302714
O       9.48939      5.58829      8.87776        -0.202797     -0.064113      0.361640
O       9.37235      9.65800      0.39890         0.533657     -0.438390      0.577762
O       9.41134      9.46430     13.25207        -0.083430      0.086478     -1.444354
O       9.52612      9.30655      4.67803        -0.180978      0.364780     -0.032827
O       9.36949      9.39053      8.89649         0.129075      0.610008      0.400856
O       3.78234      1.86023      2.59461        -0.122596      0.184257     -0.056688
O       3.82955      2.02797     15.41063        -0.626480     -0.835977     -0.271040
O       3.74821     13.31630      2.59494        -0.034244      0.453031      0.151026
O       3.79387     13.10278     15.28302         0.319600      0.186715      0.485303
O      15.19903      1.97162      2.58326        -0.243470     -0.584639     -0.422645
O       0.01750      1.78123     15.38711        -0.139521      0.332142     -0.492974
O      15.16460     13.25648      2.65458        -0.657220      0.482287     -0.029421
O       0.02898     13.29862     15.22577        -0.157426      0.303481      0.287558
O       3.74121      1.86891      6.60849         0.160964      0.010748      0.686501
O       3.75023     13.32416      6.86540         0.283928      0.526280     -0.015834
O      15.11359      1.84380      6.85145         0.523061      0.439389      0.051776
O      15.15414     13.21862      6.99875         0.596090     -0.364516      0.134263
O       3.81405      2.00244     11.00556        -0.039929     -0.421708     -0.028255
O       3.78949     13.17300     10.98766         1.399846      0.351980      0.271047
O      15.15904      1.82478     11.02641         1.307947     -0.243187      0.373007
O      15.15056     13.32735     11.11046         0.654727     -0.066580     -0.068771
O       3.76870      5.67266      2.56934         0.242249      0.369555      0.287761
O       3.81184      5.50716     15.28707        -0.971710      0.344200     -0.093014
O      15.17912      5.81797      2.44021         0.166658     -0.539521      0.375292
O      15.12691      5.75516     15.34325         1.107280     -0.458483     -0.106156
O       3.82074      5.62404      6.77861        -0.412876     -0.080598     -0.650509
O      15.12851      5.56353      6.93047        -0.048951      0.457780     -0.433223
O       3.78153      5.74519     10.99897         0.197135     -0.783008      0.241944
O      15.16568      5.69860     10.95303         1.103926     -0.048917      0.165149
O       3.73386      9.47754      2.73227        -0.635777     -0.228967      0.016130
O       3.71785      9.60469     15.29506         1.686455      0.152760      0.267230
O       0.03584      9.38733      2.58827        -0.767523      0.275023     -0.459667
O      15.17901      9.36083     15.25268        -0.898356      0.049614      0.275016
O       3.76823      9.39831      6.87569         0.029922      0.005257     -0.374394
O      15.13069      9.49893      7.02585         0.210958     -0.242778     -0.378221
O       3.76137      9.54202     11.09560         0.226219     -0.248639      0.099726
O      15.12330      9.46850     11.07867        -0.030572     -0.126427     -0.199002
O       7.61495      1.95557      2.48646        -0.307405     -0.394198      0.273559
O       7.58186      1.76054     15.39799         0.340514      0.046512     -0.082238
O       7.61907     13.27300      2.65578        -0.029698     -0.455368      0.112338
O       7.56347     13.24894     15.35231         1.065333      0.193623     -0.038458
O       7.59429      1.84189      6.65082         0.331584      0.251748      0.401151
O       7.64518     13.31207      6.66678        -0.796361     -0.109916      0.278760
O       7.55835      1.89298     11.02544         0.114832     -0.143672     -0.033571
O       7.57628     13.57465     10.91264         0.423084     -0.717351      0.507584
O       7.65256      5.71173      2.55227        -1.688094      0.112938      0.247249
O       7.58997      5.79751     15.47015        -0.912429     -0.519442     -0.652685
O       7.66128      5.64256      6.52479        -0.717190      0.134794      0.681728
O       7.52041      5.66531     11.03699         0.868704     -0.027822     -0.224562
O       7.59794      9.53308      2.60055        -0.618210     -0.093873      0.063138
O       7.58514      9.46380     15.40957        -1.519359     -0.163707      0.030037
O       7.54075      9.49311      6.81581         0.474759      0.133536     -0.301256
O       7.52566      9.35224     11.06353         0.728576      0.605218      0.381616
O      11.33343      1.84610      2.44165         1.834125      0.161373      0.096704
O      11.43559      1.90089     15.36548        -1.031078      0.058992     -0.316750
O      11.48270     13.28445      2.63895        -0.199049     -0.015457     -0.255292
O      11.44797     13.18661     15.14903        -1.180339      0.402904      0.486574
O      11.40171      1.76413      6.68372         0.128014      0.119009      0.701694
O      11.42754     13.30184      6.94279        -0.853543     -0.068214      0.200203
O      11.40894      1.88286     11.12798        -1.175670      0.520357      0.096549
O      11.35301     13.13089     11.01873        -0.619586      0.778669      0.036220
O      11.39494      5.64559      2.43906         0.136112      0.095822      0.227957
O      11.35084      5.54753     15.37852         0.142938      0.099223     -0.187975
O      11.38194      5.75948      6.82242         0.253067     -0.610603     -0.177143
O      11.41492      5.60518     11.00235        -0.813223      0.368153      0.350487
O      11.43821      9.50967      2.45198        -0.776416     -0.103539      0.201632
O      11.25647      9.58027     15.30259         1.964160     -0.612640      0.372305
O      11.43200      9.51757      6.88221        -1.696085     -0.157272     -0.139891
O      11.26753      9.49433     11.00234         0.517465     -0.135263      0.320900
O       1.86364      3.82520      2.59455         0.151481      0.116533     -0.149844
O       1.83547      3.74895     15.56176        -0.201128      0.530574     -1.157306
O       1.93351      0.03010      2.68431        -0.585666      0.284409     -0.319273
O       2.02193     15.10588     15.30152        -0.084055      0.858806      0.186140
O      13.36788      3.80340      2.40815        -0.515468     -0.367608      0.501601
O      13.32184      3.75129     15.27391         0.310681     -0.232460      0.346066
O      13.40001     15.17674      2.44058        -0.376765      0.414893      0.026498
O      13.20173     15.19234     15.25382         0.267861     -0.363608     -0.116029
O       1.79940      3.73103      6.89291         0.285000      0.602668     -0.445324
O       1.71554     15.16853      6.86128         0.613201      1.011279      0.162781
O      13.18326      3.75264      6.61629         0.047004      0.671091      0.753583
O      13.33004     15.11842      6.94853        -0.054251      1.530964     -0.109234
O       1.92178      3.67786     11.18600        -0.368924      1.472609     -0.433442
O       2.01812     15.17676     11.09776        -0.285465      0.625235      0.163683
O      13.38496      3.81559     11.05196        -0.548512     -0.557696      0.286951
O      13.19434     15.19652     11.13934        -0.036866     -0.515639      0.067589
O       1.87349      7.57890      2.70241         0.631069      0.393944     -0.103739
O       1.96285      7.58645     15.31157        -0.029953     -1.234518      0.032920
O      13.25329      7.57435      2.51262         0.078581      0.242140     -0.151817
O      13.16688      7.47788     15.37101        -0.107093      1.277849     -0.049006
O       1.80222      7.52400      6.81389         0.264320     -0.408975      0.440838
O      13.23090      7.60291      6.84020         0.618216     -0.322385     -0.314174
O       1.89821      7.48061     11.10139        -0.250636      0.713876     -0.199159
O      13.31144      7.56141     11.01536        -0.465260      0.063657      0.178650
O       1.86763     11.42120      2.60802         0.074965     -0.688778      0.064720
O       1.79353     11.34042     15.21256        -0.249433      0.762523      0.560165
O      13.40559     11.37744      2.47992        -0.446238      0.341194      0.229352
O      13.28093     11.36879     15.17073         0.418198     -0.346129      0.429461
O       1.97138     11.37857      6.82543        -0.275171     -0.029409      0.351071
O      13.29555     11.35502      6.94467        -0.149597      0.395066     -0.046269
O       1.85742     11.36100     11.03654        -0.431517      0.064144      0.267521
O      13.17560     11.35725     11.06495         0.690090     -0.552715      0.003107
O       5.69159      3.86721      2.59669         0.033709     -0.852501     -0.031537
O       5.69833      3.76995     15.42526         0.849527      0.297515     -0.302880
O       5.84236      0.02670      2.64715        -1.031388     -0.182022     -0.628754
O       5.63278     15.11183     15.39889        -0.139381      0.349515     -0.141522
O       5.71532      3.76589      6.69809        -0.034803      0.332281      0.077152
O       5.63360     15.19640      6.76299         0.284481      0.023524      0.020091
O       5.67840      3.79099     11.04765        -0.315989     -0.558357     -0.360749
O       5.58242      0.02161     11.10310        -0.058682     -0.521393     -0.313534
O       5.63895      7.64064      2.49548         0.074869     -1.000704      0.576666
O       5.51498      7.64111     15.28175         0.478003     -0.561919      0.410415
O       5.71980      7.56365      6.78100        -0.005800     -0.182264     -0.350945
O       5.69001      7.59262     11.02631        -0.390151     -1.041196     -0.039058
O       5.56273     11.42507      2.60513         0.571571     -0.388289      0.230548
O       5.77443     11.36284     15.43597        -0.278341     -0.296734      0.024761
O       5.54884     11.48359      6.79966         0.724018     -1.371132      0.022320
O       5.89727     11.39098     10.86369        -0.002350      0.433676      0.329140
O       9.47472      3.74586      2.49954         0.221768      0.402810      0.297130
O       9.39310      3.77941     15.25693        -0.180915     -0.692110      0.187606
O       9.53601     15.12118      2.44640        -0.149836      1.317317      0.035175
O       9.52760     15.11126     15.35254         0.232082      0.342523      0.011995
O       9.58142      3.74436      6.65689        -0.065328      0.390625      0.286471
O       9.45749      0.05036      6.88254         0.250461     -2.067438      0.294464
O       9.49065      3.81163     11.10286        -0.106656     -1.164976     -0.099476
O       9.51935      0.03225     10.95178         0.590248     -0.411573      0.783981
O       9.50553      7.58797      2.35900         0.171429      0.336097      0.301175
O       9.48891      7.52694     15.33544         0.276084      0.632575      0.399992
O       9.54276      7.56618      6.82692        -0.652928      0.497236     -0.205906
O       9.40399      7.57225     11.03873         0.376967     -0.552429      0.137818
O       9.59599     11.33682      2.73893        -0.379464      0.464742     -0.104482
O       9.49493     11.37192     15.23764        -0.507067      0.913843      0.249961
O       9.55504     11.39758      6.75394        -0.219020     -0.070087      0.047183
O       9.36456     11.36947     11.03739        -0.297595      0.635555     -0.075481
