  # total energy = -7881.38777219 
CRSYTAL
PRIMVEC
    15.3600000000000000    0.0000000000000000    0.0000000000000000
     0.0000000000000000   15.3600000000000000    0.0000000000000000
     0.0000000000000000    0.0000000000000000    17.440000000000000
PRESSURE
1.38449 0.629566 -1.39826 -0.287526 -0.296784 -0.030446
PRIMCOORD
320 1
Pb       3.88102      3.82750      4.38745        -0.229931     -0.129305      0.131790
Pb       3.92256      3.82310     17.41870        -0.550975      0.053326      0.398309
Pb       3.79380      0.02430      4.30518        -0.105519     -0.311662      0.452520
Pb       3.68394     15.33371     17.35751         0.192811     -0.072612      0.234125
Pb       0.05209      3.72805      4.35355        -0.181787      0.418689      0.173045
Pb       0.08778      3.97318     17.41693        -0.681421     -0.682194      0.135584
Pb       0.09144      0.02131      4.31820        -0.566541     -0.386096     -0.025281
Pb      15.24120     15.32696     17.37641        -0.049384      0.264787      0.147632
Pb       3.74955      3.73524      8.73563        -0.014917      0.333789      0.222165
Pb       3.87234      0.01350      8.56759        -0.520785     -0.608805      0.489654
Pb      15.15786      3.96009      8.62578         0.064408     -0.792241      0.539503
Pb      15.18899     15.34362      8.69864         0.754420      0.231982      0.064282
Pb       3.74398      3.67639     13.10824         0.715921      0.206068     -0.566395
Pb       3.71558     15.35429     12.94190         0.355903     -0.781637      0.069438
Pb       0.04593      3.78985     13.05781        -0.635528     -0.062229     -0.134309
Pb      15.34089     15.29499     13.07222         0.053788     -0.285983     -0.231986
Pb       3.86697      7.65747      4.33165        -0.813272     -0.108585     -0.098541
Pb       3.81431      7.56672     17.37793        -0.522919      0.682367      0.575476
Pb       0.12281      7.84364      4.35149        -0.181179     -0.846774     -0.095313
Pb      15.16923      7.68764     17.42060         0.890908      0.156692     -0.498985
Pb       3.83971      7.73434      8.62918        -0.131701     -0.739980      0.863470
Pb       0.04471      7.59537      8.62147        -0.691015      0.275373      0.561804
Pb       3.82030      7.55562     12.98162         0.369756      0.124616      0.112113
Pb      15.35141      7.62785     13.12287         0.152252      0.102629     -0.464231
Pb       3.81427     11.59852      4.22442        -0.391713     -0.123059      0.003154
Pb       3.98425     11.61975     17.39675        -0.391473     -0.371192      0.164529
Pb       0.05264     11.55336      4.37779        -0.683334      0.334658     -0.584115
Pb      15.28551     11.57989     17.28514        -0.187088     -0.147628      0.196455
Pb       3.88681     11.53602      8.60689        -0.808739     -0.035129      0.648667
Pb      15.26856     11.43461      8.69682         0.378335     -0.235494      0.118078
Pb       3.91372     11.45352     13.15039        -0.517387      0.103028     -0.442817
Pb       0.17168     11.58978     13.05171        -0.293238     -0.344942      0.135438
Pb       7.73005      3.75339      4.35681        -0.312215     -0.293676     -0.951108
Pb       7.67805      3.88244     17.41639         0.086528     -0.126547      0.039269
Pb       7.71014      0.01986      4.38686         0.160189      0.177228     -0.090795
Pb       7.56412      0.08820     17.29770         0.402418     -0.364628      0.427209
Pb       7.61034      3.82769      8.77975         0.460115     -0.006931     -0.270505
Pb       7.65861     15.22796      8.73851         0.041288      0.366633     -0.503657
Pb       7.87459      3.92140     13.06074        -0.613847     -1.172176      1.345418
Pb       7.67374      0.13209     13.03076        -0.582479      0.155989     -0.206876
Pb       7.73673      7.51351      4.32425        -0.537565      1.014960     -0.293332
Pb       7.59957      7.79506     17.39008         0.620227     -0.666810      0.550330
Pb       7.70005      7.68420      8.65201        -0.109473     -0.544822      0.775801
Pb       7.58991      7.72440     13.02731         0.468349     -0.415976      0.229507
Pb       7.64247     11.53768      4.31202         0.436353     -0.542009      0.309056
Pb       7.75360     11.51585     17.40798        -0.431138      0.705554      0.110507
Pb       7.50767     11.59446      8.54104         0.642274     -0.402530      0.664067
Pb       7.76941     11.46753     13.00667        -0.457837      0.424385      0.066715
Pb      11.43599      3.79560      4.30563         0.316987     -0.338634     -0.458972
Pb      11.74656      3.89695      0.05577        -0.104286     -0.199609      0.287585
Pb      11.53368     15.24010      4.32865        -0.130278      0.665709      0.328643
Pb      11.31445     15.27022      0.02166         0.379405     -0.060811      0.106933
Pb      11.37862      3.87601      8.69477         0.602068      0.069315     -0.103400
Pb      11.52948     15.35647      8.73730        -0.308148     -0.039293     -0.224403
Pb      11.61815      3.71492     13.07171        -0.952327      0.348749      0.116691
Pb      11.57239     15.34118     13.01724        -0.038988     -0.088884     -0.695219
Pb      11.51348      7.61088      4.33735        -0.082749      0.758929     -0.337467
Pb      11.54802      7.66721     17.38625        -0.463170      0.216854      0.177963
Pb      11.51544      7.70974      8.71229         0.175502     -0.327140      0.094098
Pb      11.36616      7.64829     13.10561        -0.060125     -0.288223     -0.690208
Pb      11.60078     11.43913      4.25961        -0.597176     -0.374154      1.054381
Pb      11.40705     11.39666     17.35329         0.251027      0.413732      0.190562
Pb      11.63934     11.46616      8.56517        -0.744840     -0.327532      0.523691
Pb      11.55097     11.45812     13.02318        -0.186497      0.218812     -0.302157
Ti       1.95040      1.94255      2.32934        -1.611383     -0.451599     -1.304553
Ti       1.86482      1.84622     15.42277        -0.758550     -0.226894     -0.647205
Ti       1.83809     13.43215      2.23013        -0.132974     -0.121437     -0.145287
Ti       1.90605     13.37092     15.48131        -1.627403      0.259704      0.490905
Ti      13.40741      1.92412      2.44810        -0.082004      0.378271     -1.515656
Ti      13.42449      1.91346     15.36212         0.197132      0.811544     -0.150386
Ti      13.32780     13.46934      2.20075         1.208514     -0.704100      0.702985
Ti      13.30563     13.52027     15.37732         0.415919     -0.694300      0.114168
Ti       1.86813      1.88623      6.82953        -0.854790     -0.519070      0.197623
Ti       1.81591     13.37399      6.68854        -0.178036      1.058667      0.464993
Ti      13.31873      1.89980      6.67495         0.619819     -0.034903     -0.345947
Ti      13.40130     13.39424      6.67417         0.063634      0.351120      0.298252
Ti       1.89530      1.78033     11.00757        -1.661720     -0.054082     -0.439392
Ti       1.85551     13.30705     10.88048         0.283581     -0.413032      1.264929
Ti      13.45487      1.85086     11.02651         0.006673     -0.181165     -0.169931
Ti      13.41939     13.32589     10.93829        -0.251823      0.792589      1.024853
Ti       1.93458      5.71299      2.30296        -1.172476      0.683154      0.445501
Ti       1.94644      5.71190     15.31858        -0.876938      1.280544      0.242954
Ti      13.54285      5.78457      2.47852        -0.960714     -0.494855     -0.175126
Ti      13.46295      5.81618     15.30760        -0.030521     -1.151387      0.247620
Ti       1.93778      5.72724      6.80758        -0.731141     -0.372799     -2.086851
Ti      13.39281      5.71043      6.52714        -0.440122     -0.445395      0.438279
Ti       1.86988      5.64301     11.03624         0.511723      0.437049     -0.128342
Ti      13.35735      5.67574     11.06743        -0.181153      0.300972     -1.295225
Ti       1.83540      9.64776      2.18674         0.029830     -0.784054     -0.524971
Ti       1.90723      9.59890     15.50215        -0.669274     -0.301866     -0.052691
Ti      13.39172      9.61848      2.27635        -0.526760      0.315913      1.448658
Ti      13.38557      9.65985     15.34260        -0.115624     -0.191389     -0.243041
Ti       1.92686      9.57532      6.66267        -1.306091      0.300618      0.071897
Ti      13.44133      9.46774      6.61172        -0.791312      0.581028     -0.129181
Ti       1.99219      9.44948     11.03825        -0.850293      1.165907     -0.747203
Ti      13.44958      9.46441     11.16887        -0.120444     -0.083080     -1.528078
Ti       5.67755      1.84174      2.28760         0.904751      0.895047     -0.559390
Ti       5.66516      1.94965     15.43633         1.137563     -0.055504     -1.255394
Ti       5.79367     13.50286      2.42070        -0.492347     -0.960721     -1.086072
Ti       5.75612     13.49022     15.34655        -0.323169     -0.352514      0.639663
Ti       5.75141      1.89935      6.68505         0.067127     -1.075438     -0.325080
Ti       5.61597     13.37923      6.56380         0.246945      1.036189      0.094305
Ti       5.66247      1.91988     10.85835         0.847514      0.009484      2.439213
Ti       5.68831     13.37088     11.01257        -0.346394      0.476978      1.165604
Ti       5.68468      5.73184      2.36564         0.655808     -0.540727     -0.984207
Ti       5.70720      5.76234     15.47280         1.325836      0.091654     -1.385342
Ti       5.70519      5.63682      6.70738        -0.030601      0.127855     -0.641375
Ti       5.78160      5.66441     11.05781        -0.559889      0.730574     -0.191738
Ti       5.62583      9.59908      2.33928         1.028431     -0.284354     -0.182287
Ti       5.70588      9.58053     15.44998        -0.227761      0.290399     -1.319798
Ti       5.64133      9.46279      6.66722         1.361854     -0.107648     -1.073489
Ti       5.78441      9.59128     11.05610        -0.159115      0.290868      0.980567
Ti       9.54991      1.84782      2.23436         0.240393      0.604851      0.486660
Ti       9.69034      1.94115     15.51962        -1.409749      0.380785     -1.668718
Ti       9.58111     13.38006      2.41910         0.043452      0.432644     -1.414253
Ti       9.57189     13.46097     15.22308        -0.512750     -0.155397      0.922274
Ti       9.56503      1.85986      6.68909         0.233353     -0.214064     -0.238803
Ti       9.51377     13.42140      6.71675         0.663170      0.104153      0.162139
Ti       9.55397      1.88578     10.95424         0.104363      0.600641      0.089919
Ti       9.49416     13.50514     11.01345         0.579771     -0.622436     -0.282209
Ti       9.58234      5.73685      2.29496         0.100362     -0.546996     -0.520123
Ti       9.63946      5.71086     15.53588        -0.544934     -0.047436     -0.618058
Ti       9.47922      5.70880      6.57015         1.121678     -0.179731      2.141280
Ti       9.56266      5.65492     10.98666         0.557187      0.740531      0.494342
Ti       9.49610      9.52212      2.30283         0.666852      0.488149     -0.438798
Ti       9.49621      9.60572     15.40964         1.479292     -0.366610     -0.379250
Ti       9.48024      9.58496      6.82461         1.361721      0.033334     -2.743127
Ti       9.60787      9.63347     11.06421        -0.154815     -0.535919     -1.395723
O       1.76008      2.01284      0.55651         0.749803     -0.349820      0.212957
O       1.89471      1.71240     13.58103         0.270201      0.784504      1.288622
O       1.81928     13.37698      0.43635        -0.088516      0.168136      0.813573
O       1.74483     13.43431     13.77647         0.199183     -0.411790     -2.155276
O      13.45022      2.06022      0.64320        -0.126276     -0.437010      0.940167
O      13.55704      1.94852     13.54990        -0.668569     -0.478265      0.970831
O      13.40331     13.49398      0.42114        -0.331733     -0.094416      0.703816
O      13.27356     13.58971     13.57589        -0.151136     -0.417976      1.121290
O       1.89567      1.85698      5.07484        -0.012502     -0.142134     -0.672758
O       1.82718     13.50887      4.89686         0.060011     -0.417217      0.226465
O      13.29559      1.87241      4.86169         0.165173      0.001105      0.600987
O      13.47152     13.42126      4.93697        -0.064378     -0.079275      0.135073
O       1.80214      1.84222      9.25584         0.467674      0.234668      0.121287
O       1.83539     13.21073      9.16982         0.162767      0.280135     -0.642340
O      13.46565      1.90105      9.26191        -0.119457     -0.257827      0.507958
O      13.47547     13.34481      9.15820        -0.164546     -0.003188      0.673271
O       1.88964      5.66554      0.53591         0.048203      0.110353      0.214038
O       1.90163      5.82446     13.53388         0.229074     -0.385060      0.510619
O      13.48135      5.64037      0.65700         0.216318      0.626264      0.344591
O      13.39520      5.67068     13.55557         0.025346      0.312935      0.518697
O       1.88074      5.80745      4.99911         0.290325     -0.380442      1.213245
O      13.45027      5.62031      4.71910        -0.438646      0.492213      1.411332
O       1.83155      5.63202      9.24312        -0.060452      0.328962      0.505750
O      13.38281      5.70308      9.18839         0.156055     -0.030887      2.340597
O       1.79869      9.64631      0.38354         0.089426     -0.080327      1.762591
O       1.74226      9.66753     13.73068         0.411929     -0.279032     -0.162456
O      13.30557      9.57046      0.52537         0.410799     -0.176898     -0.314620
O      13.28042      9.46614     13.56080         0.230419      0.465052     -0.000943
O       1.88286      9.50576      4.89532         0.149056      0.331971      0.377002
O      13.31214      9.64910      4.85431         0.426034     -0.317924      1.030575
O       1.94576      9.40974      9.22553         0.323851      0.268592      0.993453
O      13.45330      9.45352      9.34774        -0.332905      0.067620      0.503790
O       5.63202      1.88665      0.45791         0.025125     -0.018346      1.458456
O       5.58415      2.05771     13.62448        -0.330900     -0.603944      1.424464
O       5.95997     13.36854      0.65518        -0.684624      0.144576      0.009353
O       5.60825     13.52367     13.64194         0.209284     -0.144010     -0.287445
O       5.62902      1.83484      4.90016         0.349951      0.176791      0.621045
O       5.64586     13.41862      4.77874        -0.002530     -0.079043      0.642865
O       5.70433      1.87569      9.13357         0.193224     -0.051397     -0.664334
O       5.61474     13.46318      9.24268         0.412069     -0.706191      0.002888
O       5.59995      5.65089      0.55429         0.141110      0.173830      0.655231
O       5.71428      5.87637     13.67451        -0.384757     -0.374604      0.708691
O       5.59056      5.58765      4.88542         0.551312      0.427020      1.047697
O       5.88437      5.77015      9.31085        -0.103432     -0.192834     -0.432835
O       5.78584      9.77289      0.59913        -0.344871     -0.471721     -0.331207
O       5.78474      9.47941     13.63878        -0.023145      0.321682      1.582893
O       5.66117      9.23232      4.90701         0.230416      1.155753      0.555332
O       5.74051      9.74661      9.31656        -0.287009     -0.547682     -0.838795
O       9.47608      1.84241      0.46493         0.300412      0.046940      0.185106
O       9.64640      2.08437     13.68679        -0.201692     -0.844261      1.042119
O       9.62380     13.37557      0.61132        -0.271195     -0.121394      1.669679
O       9.49890     13.44666     13.44518         0.550851      0.475230      1.022758
O       9.63649      1.72425      4.87950        -0.523653      0.510746      0.910234
O       9.39500     13.46848      4.96075         0.315350     -0.101394     -0.367519
O       9.57336      1.87398      9.17439        -0.454866      0.039220      0.635154
O       9.44577     13.52230      9.19784        -0.094781     -0.081669      0.797550
O       9.55992      5.81012      0.52601         0.008493     -0.265390      0.049805
O       9.60655      5.61104     13.74901         0.180181      0.408630      0.771279
O       9.40105      5.70408      4.79442         0.334240     -0.055410      0.604722
O       9.55623      5.52694      9.24405        -0.222925      0.215612     -0.432313
O       9.68771      9.67500      0.46654        -0.725532     -0.325772      1.612500
O       9.57790      9.52284     13.60892        -0.182321      0.145919      0.335521
O       9.53241      9.57991      4.97121        -0.529884     -0.359961      1.597179
O       9.74066      9.61988      9.29417        -0.780441     -0.020653     -0.281058
O       3.77560      1.82497      2.78395         0.813123     -0.047009     -0.370436
O       3.71017      1.84198     15.92900         0.152656      0.540558     -0.688484
O       3.82038     13.46089      2.61232        -0.468076     -0.442345      0.218925
O       3.69531     13.40850     15.71508         3.220974      0.478999      0.747285
O       0.03229      1.89535      2.76556        -0.329392     -0.361582      0.428795
O      15.29980      1.78752     15.84391         0.192100      0.809379     -0.511683
O      15.24352     13.36638      2.74930         0.614748      0.101591     -0.513795
O      15.21533     13.42042     15.70789        -0.580128     -0.042520      0.403023
O       3.81138      1.84686      7.09677         0.305580      0.394553      0.175307
O       3.71486     13.38726      7.09841         1.412533      0.034346     -0.447050
O      15.23670      1.89402      7.07175         0.870470      0.176465     -0.098041
O      15.32815     13.38863      7.10402        -0.171112     -0.027926     -0.165353
O       3.74213      1.93913     11.28009         0.694284     -0.513667      0.582224
O       3.73725     13.21077     11.44380         0.443928      0.598894     -0.167088
O      15.35563      1.86505     11.40253         0.054418      0.254253      0.300150
O      15.32380     13.37079     11.41223        -0.395740     -0.558158     -0.195410
O       3.70854      5.73979      2.73758         1.386593     -0.474274      0.158897
O       3.79584      5.83030     15.89110         0.249715     -0.691612     -0.651291
O       0.00222      5.72084      2.78679         0.563175      0.071322     -0.197664
O       0.00771      5.71038     15.73811        -0.426838      0.529619     -0.116949
O       3.83793      5.59176      7.16609         0.625383      0.720454     -0.003595
O      15.25926      5.70050      7.06079         0.933764     -0.013413     -0.241626
O       3.80699      5.83718     11.20178        -0.341467      0.021959      0.842177
O      15.30505      5.81739     11.51114         0.066069     -0.719395     -0.376837
O       3.73619      9.63221      2.67470        -0.084335     -0.304748     -0.080151
O       3.81373      9.59091     15.87067         0.737523     -0.027594     -0.233736
O      15.27346      9.59621      2.74032         0.944994      0.399340     -0.462195
O      15.28217      9.63875     15.85556        -0.302423      0.023987     -0.208078
O       3.79106      9.53152      6.99161         0.637388     -0.105200      0.421136
O      15.33568      9.50874      6.95111         0.412956     -0.068391      0.248446
O       3.88853      9.61880     11.54443        -1.048438     -0.518378     -0.467659
O      15.28784      9.48449     11.34520         0.424669     -0.264877      0.693231
O       7.61149      1.85324      2.66345        -0.033265     -0.017012      0.143525
O       7.64420      1.86305     15.79458        -0.968931      0.171897     -0.171855
O       7.67573     13.47661      2.84181         0.348966     -0.438102      0.057623
O       7.64465     13.39617     15.70462         0.232991      0.567258     -0.167278
O       7.69712      1.89721      7.08104        -0.884493     -0.437447     -0.308903
O       7.52648     13.45111      7.01413         0.304621     -0.375210      0.109112
O       7.49958      2.04702     11.44952         0.304504     -0.645483     -0.586756
O       7.59922     13.40914     11.49299        -0.168398     -0.055135     -0.511921
O       7.64643      5.69012      2.61716        -0.775074     -0.020713      0.521319
O       7.58999      5.75911     15.78259         0.683213      0.091972      0.538405
O       7.66270      5.72135      7.22550        -0.173052     -0.412245     -1.105604
O       7.68558      5.48957     11.45959        -0.507836      1.234313     -0.365953
O       7.56163      9.31330      2.64510         0.592466      1.104718      0.159942
O       7.67721      9.68107     15.88663        -0.774710     -0.648715     -0.328248
O       7.61009      9.56006      7.20734        -0.690211      0.271808     -0.384327
O       7.67572      9.63272     11.42520         0.103918      0.157249      0.201028
O      11.44435      1.89610      2.72989         0.592256      0.303184     -0.165121
O      11.48638      2.02797     15.79391         1.148958     -0.451691      0.143029
O      11.49092     13.37780      2.84486        -0.652366      0.020486     -0.672910
O      11.36829     13.35898     15.95070         0.564412      0.823967     -1.231923
O      11.47022      1.96955      7.16538         0.066439     -0.891842     -0.232135
O      11.48440     13.44034      7.05143         0.115924     -0.347889     -0.073427
O      11.42630      1.74399     11.23815         0.957811      0.086897      0.610720
O      11.44016     13.60832     11.34282         0.375614     -0.105823     -0.129316
O      11.47722      5.64286      2.66878         0.101042      0.564651      0.388162
O      11.57040      5.75157     15.88326        -0.344873      0.300017     -0.346621
O      11.50157      5.72538      7.13920        -0.761063      0.140068     -1.257055
O      11.41055      5.65767     11.46896         0.743635     -0.317253     -0.039598
O      11.48475      9.56185      2.83042        -0.767255     -0.339842     -0.655258
O      11.50413      9.52079     15.79942        -0.232784      0.254673     -0.168011
O      11.46490      9.49388      7.09106         0.819316      0.297873      0.036086
O      11.40039      9.48925     11.38859         1.279562      0.300771      1.072008
O       1.95223      3.75756      2.79494        -0.255558      0.848660     -0.072977
O       1.87372      3.89195     15.74299         0.381050     -1.468253     -0.448817
O       1.83386     15.27514      2.59738         0.183042      0.630236      0.356723
O       1.76057     15.29479     15.77291         0.680208      1.330142      0.646204
O      13.53023      3.81916      2.82373        -0.652132     -0.221704     -0.059449
O      13.37288      3.83612     15.79610         0.578353      0.085359     -0.303633
O      13.31392     15.28556      2.74444         0.471166      0.571346     -0.316506
O      13.25566      0.06118     15.86592         0.056232     -0.555362     -0.433617
O       1.97978      3.83269      7.24923        -0.761160     -0.608531     -0.665687
O       1.88714     15.30428      7.23534        -0.221142      0.120176     -0.549382
O      13.36282      3.79231      7.14270        -0.007721      0.535944     -0.913864
O      13.46016     15.34547      7.17668        -0.802176     -0.312986     -0.601944
O       1.86672      3.77496     11.61021         0.281326      0.168685     -0.911469
O       1.82031     15.15858     11.39776         0.623519      1.578561     -0.149338
O      13.35341      3.74949     11.50957         0.591221      0.105976     -0.549642
O      13.56270     15.26297     11.47981        -0.856099      0.649841     -0.578379
O       1.81510      7.66453      2.68797         0.253779      0.590088     -0.426607
O       1.88545      7.66748     15.81082        -0.124520     -0.326075      0.049133
O      13.36544      7.76935      2.93715         0.449524     -1.366667     -1.122972
O      13.45944      7.70960     15.75132        -0.007422     -0.687756      0.075170
O       1.97175      7.64212      7.15010        -0.064572     -0.135769     -0.163371
O      13.47518      7.57966      7.04612        -0.444638      0.509261     -0.562783
O       1.88922      7.62627     11.46373        -0.044821      0.066971      0.032682
O      13.22279      7.49794     11.49604         0.484443      1.424837      0.069258
O       1.89732     11.52272      2.76763        -0.273395     -0.193606     -0.351916
O       1.97868     11.51698     15.86433        -0.810544     -0.641676      0.030106
O      13.31354     11.52217      2.73945         0.556357     -0.119729     -0.682267
O      13.26701     11.54389     15.76115         0.385150     -0.146999     -0.494718
O       1.91014     11.49313      7.13057        -0.181213     -1.096286     -0.709926
O      13.53675     11.45447      7.14869        -0.802032     -0.370375     -0.720488
O       1.79444     11.39052     11.44132         0.265793     -0.017293     -0.080324
O      13.30331     11.48080     11.44391         0.024677     -0.119045     -0.181708
O       5.70617      3.74761      2.82534        -0.340362     -0.011082     -0.464550
O       5.76278      3.82775     15.87561        -0.891340      0.101397     -0.214199
O       5.71577     15.33113      2.77701        -0.008824      0.805300     -0.190154
O       5.61878      0.04723     15.85738         0.168527     -1.022306     -0.393764
O       5.77685      3.74208      7.07613        -0.081493      0.752481      0.073445
O       5.69507     15.27123      7.03295        -0.115851      0.229880     -0.163734
O       5.54110      3.85541     11.34549        -0.083857     -0.996899     -0.038215
O       5.68474     15.27182     11.43044        -0.244700      0.921180     -0.360217
O       5.59957      7.54979      2.70504         0.016882      0.763751     -0.139825
O       5.76936      7.69892     15.93028        -0.321558      0.080461     -0.156348
O       5.76228      7.55472      7.05304        -0.305222      0.510978      0.262885
O       5.83357      7.71825     11.59748        -0.382616     -0.707389     -1.173296
O       5.72292     11.46778      2.80270         0.223442      0.051000      0.108507
O       5.76920     11.50384     15.82018        -0.436568      0.521207     -0.280990
O       5.64940     11.43736      6.98799         0.237082      0.358231     -0.342739
O       5.71278     11.49432     11.67824         0.547548     -0.010464     -0.854774
O       9.57240      3.77877      2.72697        -0.517508     -0.037386     -0.000913
O       9.52617      3.81615     15.91639         0.051933      0.984154      0.171354
O       9.64989     15.35175      2.68233        -0.404471     -0.947494      0.102403
O       9.60593     15.34925     15.86050        -0.146360     -0.522893     -0.755732
O       9.59032      3.75848      7.04621        -0.416565      1.373849     -0.574587
O       9.62309     15.31463      7.17098        -0.467367     -0.053402     -0.267349
O       9.58239      3.74604     11.54166         0.425013     -0.318509     -0.739536
O       9.37693      0.06135     11.45376        -0.012446     -0.382389     -0.148590
O       9.50441      7.65296      2.71641         0.787186     -0.360396      0.102800
O       9.57778      7.73884     15.96468        -0.226495     -0.861245     -0.676026
O       9.50433      7.63482      7.12725         0.040306     -0.663414     -0.348244
O       9.52227      7.57630     11.29408        -0.312303      0.305442      0.483661
O       9.56130     11.39391      2.86496        -0.767138      0.752878     -0.657279
O       9.57751     11.52578     15.68175        -0.048625      0.071989     -0.003792
O       9.57084     11.50621      7.14918        -0.411578      0.198753     -0.122022
O       9.63780     11.62107     11.46169        -0.202646     -0.990363     -0.122889
