  # total energy = -7879.91840169 
CRSYTAL
PRIMVEC
    15.2000000000000000    0.0000000000000000    0.0000000000000000
     0.0000000000000000   15.2000000000000000    0.0000000000000000
     0.0000000000000000    0.0000000000000000    17.000000000000000
PRESSURE
7.6707 7.24174 6.36111 -0.196772 0.244815 -0.006711
PRIMCOORD
320 1
Pb       3.64234      3.86743      4.28018         0.109476     -0.176073     -0.045405
Pb       3.95635      3.90711      0.06805        -0.631333     -0.128542     -0.486673
Pb       3.60010      0.20853      4.37409         0.043049     -0.387798      0.194255
Pb       3.92103     15.18497     16.99973        -0.252422     -0.330520     -0.220440
Pb      15.14708      3.91215      4.16834         0.507083     -0.058565     -0.116960
Pb       0.12252      3.73082     16.94023        -0.226667      0.477959      0.252720
Pb      15.15801      0.28547      4.44366         0.605895     -0.501125     -0.593620
Pb       0.07059     15.11200     16.87750        -0.339367     -0.005667      0.432601
Pb       3.94929      3.81117      8.44362        -0.711799     -0.582393     -0.745050
Pb       3.81464     14.96552      8.71758        -0.001049      0.583632     -0.841088
Pb       0.05575      3.71869      8.65522         0.098998      0.142000     -0.768446
Pb      14.96692     15.06949      8.64491         0.571781      0.366906     -0.644558
Pb       3.83087      3.80390     12.62302        -0.568757     -0.481834      0.530636
Pb       3.83599     15.16944     12.76038        -0.086501     -0.149191     -0.322739
Pb      15.19654      3.71269     12.70706         0.064913     -0.027072      0.061878
Pb       0.09206     15.16669     12.84231        -0.614425      0.373018     -0.658922
Pb       3.64299      7.75785      4.33641         0.117806     -0.602036     -0.344575
Pb       3.91375      7.64437      0.02627        -0.724180      0.036120     -0.210262
Pb      15.08213      7.87445      4.25507         0.537165     -1.036597     -0.071872
Pb       0.05778      7.60768     16.82578        -0.186230     -0.170503      0.827534
Pb       3.78467      7.59708      8.36598        -0.525974     -0.215340     -0.219280
Pb      15.05430      7.48046      8.52206         0.366567     -0.036160     -0.247151
Pb       3.80418      7.44492     12.56012        -0.143383      0.618263      0.599231
Pb      15.13113      7.35053     12.66476         0.474964      0.613990      0.575947
Pb       3.50204     11.51221      4.33934         0.385592     -0.242187      0.071877
Pb       4.05139     11.41929      0.31874        -0.781800     -0.102387     -0.919178
Pb      15.05718     11.55645      4.21466         0.234658     -0.248244     -0.399532
Pb       0.13819     11.41967     16.92782         0.007232     -0.380537     -0.062586
Pb       3.72229     11.39214      8.53825        -0.033291      0.086808     -0.301458
Pb      14.99779     11.40859      8.55375         0.119965     -0.188405     -0.000108
Pb       3.72460     11.29010     12.72409         0.331977      0.049011     -0.367850
Pb      15.18757     11.08625     12.86254        -0.344691      0.426414     -0.310495
Pb       7.56384      3.77233      4.16289        -0.086024      0.185346     -0.204819
Pb       7.54842      3.77629      0.04425         0.395401     -0.243860     -0.192847
Pb       7.58948     15.16867      4.22575         0.244281      0.473045     -0.577822
Pb       7.63986     15.12306      0.01473         0.125128      0.147358     -0.224385
Pb       7.69594      3.80461      8.30825         0.034098     -0.283782      0.131109
Pb       7.60789     15.09111      8.35850        -0.094753      0.675952      0.453270
Pb       7.53756      3.84651     12.75474         0.671874     -0.500682     -0.096195
Pb       7.56676     15.18218     12.78254         0.445065     -0.272521     -0.088808
Pb       7.73067      7.65892      4.25205        -0.413378     -0.706316     -0.310533
Pb       7.48033      7.72835      0.05882         0.423244     -0.338765     -0.247429
Pb       7.53711      7.62845      8.33477         0.614032     -0.209796      0.181772
Pb       7.45090      7.50097     12.63987         0.698759      0.494340      0.456557
Pb       7.50485     11.37700      4.24748         0.358991      0.024687     -0.415093
Pb       7.64091     11.43352      0.02420        -0.152502     -0.019226     -0.357398
Pb       7.51421     11.55609      8.49185        -0.052655     -0.564765     -0.173194
Pb       7.44385     11.26280     12.68315         0.415604     -0.085677      0.090569
Pb      11.43435      3.74229      4.09736        -0.042676      0.441849      0.135863
Pb      11.41026      3.64974     16.99977        -0.185380      0.297927     -0.190946
Pb      11.49410      0.00573      4.14702        -0.354819     -0.373412     -0.374636
Pb      11.50700     15.10559     16.91063        -0.634247      0.354027      0.239188
Pb      11.40768      3.80607      8.44769        -0.237041      0.034280     -0.228438
Pb      11.25365     15.19812      8.39109         0.600971      0.175056      0.462471
Pb      11.35962      3.75390     12.81135         0.161312     -0.251459     -0.210685
Pb      11.40804     15.09724     12.75592         0.255063      0.452706      0.036731
Pb      11.44866      7.78411      4.08559        -0.241603     -1.140651      0.443017
Pb      11.33243      7.52975     16.90914         0.521780     -0.251323      0.062541
Pb      11.26280      7.49063      8.55035         0.055846     -0.022806     -0.783343
Pb      11.31131      7.45432     12.83405         0.244297      0.053867      0.107001
Pb      11.40830     11.33561      4.12287        -0.054664      0.512463      0.009993
Pb      11.41032     11.49245     16.88618         0.071553     -0.319122     -0.130583
Pb      11.26207     11.49911      8.50369         0.449168     -0.515205      0.021576
Pb      11.35842     11.32892     12.68907         0.069000     -0.043128      0.504557
Ti       1.91860      1.93973      2.12363        -0.560979      0.040756      1.184100
Ti       2.04074      1.85407     15.02616        -0.694479      0.479284      0.532134
Ti       1.85237     13.37932      2.20389        -0.448273      0.113485      1.278727
Ti       1.91167     13.22805     14.92876         1.147239     -0.193850      0.578808
Ti      13.33031      1.86062      2.17369         0.464478      0.278888      0.730930
Ti      13.37608      1.83022     15.02263        -0.635554      0.120626      0.112140
Ti      13.27285     13.23177      2.06728         0.276624      1.027317      1.143065
Ti      13.34099     13.24976     14.80648        -0.642556     -0.520373      1.661034
Ti       1.87691      1.82517      6.70322         0.434599      0.502341     -0.702316
Ti       1.81247     13.25274      6.58136         0.211174      1.067333     -0.015190
Ti      13.25709      1.91432      6.52707         0.282495     -0.172228      0.925094
Ti      13.19281     13.25613      6.39658         0.803402      0.510090      0.565673
Ti       1.95038      1.83565     10.77758        -0.228513      0.390269      0.296273
Ti       1.86004     13.25895     10.79340         0.732571     -0.030887      0.167631
Ti      13.26057      1.89833     10.72667         0.255887     -1.044070      1.351337
Ti      13.34944     13.24002     10.81805        -0.761537      0.754407      0.732865
Ti       1.88693      5.77811      2.15514        -0.736448     -0.622630      1.622805
Ti       1.93408      5.62342     14.90639        -0.204888      0.733515      0.229075
Ti      13.26447      5.69813      2.10823         0.744354     -0.259342     -0.442200
Ti      13.35153      5.60960     15.01264        -0.813621      0.845287      1.347989
Ti       1.84131      5.65035      6.43338         0.324913     -0.169429      1.103909
Ti      13.28727      5.69630      6.37395        -0.463746     -1.024368      1.695503
Ti       1.93780      5.63710     10.64653        -1.146379     -0.489724      0.301337
Ti      13.24355      5.64868     10.74252         0.641265     -0.931563      1.392799
Ti       1.88726      9.51969      2.25802        -0.246138     -0.019032     -1.498148
Ti       1.93466      9.43698     14.93360         0.229950      0.599285      2.490132
Ti      13.32366      9.46305      1.99822         0.253987      0.880027      0.538142
Ti      13.28713      9.46898     14.94725         0.285073     -0.749434     -0.383796
Ti       1.72117      9.46476      6.62939         0.998087     -0.412403      0.669278
Ti      13.18664      9.45094      6.55693         0.243425      0.426130      1.796214
Ti       1.85112      9.43340     10.68202         0.166168     -0.211406     -0.155910
Ti      13.21104      9.40159     10.82340         0.489789      0.378958      0.609663
Ti       5.60463      1.91046      2.26619         0.593439     -0.245034      1.596679
Ti       5.76402      1.85677     14.89339        -0.715128      0.534591      1.464051
Ti       5.56136     13.34942      2.38928         0.434877     -0.163821     -0.412933
Ti       5.68660     13.23481     14.97119        -0.173225      0.183177     -0.578389
Ti       5.73146      1.75499      6.43144        -1.270353      1.093199      0.901550
Ti       5.66603     13.21463      6.34414        -1.021605      0.845713      1.740517
Ti       5.75381      1.90041     10.70715        -0.114521     -1.991200      0.451213
Ti       5.74061     13.26247     10.81852        -0.394651     -0.359572      0.049893
Ti       5.63570      5.71237      2.33603         0.723520      0.425221      2.661567
Ti       5.70885      5.72599     14.95170        -0.625615     -0.730211      1.142817
Ti       5.72241      5.69209      6.38743        -0.391425     -0.617220     -0.234497
Ti       5.70180      5.59503     10.51010         0.751372      0.517589      1.045557
Ti       5.67289      9.47730      2.39765         0.363104      0.312137      0.299590
Ti       5.67115      9.51404     14.99124         0.233347     -0.137484      0.290263
Ti       5.59517      9.48547      6.35900         0.365452      0.520553      1.608924
Ti       5.63415      9.42143     10.55728         0.759904      0.577614      2.990644
Ti       9.47960      1.84718      2.20156        -0.161026      0.017024      0.262042
Ti       9.47164      1.84838     14.96350        -0.007924     -0.313643      1.163369
Ti       9.42453     13.20525      2.23494         0.861689      1.305031      0.782247
Ti       9.48923     13.24734     14.86455         0.362563      0.121148      1.914102
Ti       9.49077      1.93640      6.30696         0.739445     -0.369497      1.094210
Ti       9.48301     13.26755      6.33868         0.254357      0.329297     -0.484363
Ti       9.47994      1.80301     10.78852        -0.067388      0.473073      0.104976
Ti       9.53949     13.23167     10.73404        -0.580371      0.147336      1.980805
Ti       9.51353      5.65047      2.17388        -0.573100     -0.248307      1.022353
Ti       9.38526      5.66458     15.07242         1.118068      0.027173      1.417511
Ti       9.53000      5.69316      6.22909         1.321688      0.073788      1.048164
Ti       9.48475      5.58738     10.76560         0.043233      0.119029      1.001670
Ti       9.51228      9.46320      2.16286        -0.306590      0.134661      1.247810
Ti       9.49893      9.44096     14.99007        -0.157296      0.748791      0.555171
Ti       9.43230      9.49475      6.49563         0.700262     -0.370816     -0.028640
Ti       9.47847      9.38537     10.77818        -0.721163      0.095371      0.783965
O       1.97384      2.02637      0.35944        -0.025052     -0.624557     -0.143716
O       2.00487      1.91201     13.26677        -0.206602     -0.157814     -0.573351
O       1.93289     13.30095      0.47707         0.040195      0.007022     -0.998961
O       2.00422     13.22964     13.13989        -0.167655     -0.048982     -0.221175
O      13.31130      1.88663      0.42411         0.150532     -0.091687     -0.567269
O      13.31236      1.83539     13.28821         0.094520      0.108635     -0.503737
O      13.24794     13.29373      0.30337         0.230111     -0.375202      0.113310
O      13.31872     13.23913     13.07617         0.148755      0.227237     -0.409533
O       1.81715      1.87106      4.87004        -0.117771     -0.068532      0.477876
O       1.91994     13.36758      4.79104        -0.815055     -0.521611      0.506413
O      13.29489      1.91035      4.74475         0.068672     -0.172063     -0.310616
O      13.25842     13.37538      4.62834         0.081066     -0.509980      0.001915
O       1.89132      1.77247      9.05013         0.192267      0.336013     -1.636894
O       2.03861     13.31145      9.01029        -0.745573     -0.356507     -0.555133
O      13.21686      1.79627      8.97022         0.028101      0.194164     -0.376836
O      13.25100     13.24737      9.03513        -0.004260     -0.198966     -0.283766
O       1.84979      5.71751      0.41992         0.497616      0.103857     -0.516179
O       1.82461      5.56549     13.12205         0.642705      0.085432      0.173046
O      13.27146      5.66899      0.33625        -0.135103     -0.191367      0.082599
O      13.31827      5.71660     13.26042         0.035717     -0.410963     -0.631915
O       1.80977      5.69302      4.66586         0.283758      0.134834     -0.173643
O      13.21611      5.61790      4.65814         0.136314      0.420559     -1.226633
O       1.84827      5.60635      8.90043         0.162485      0.189406     -0.071881
O      13.25678      5.62025      9.02590        -0.017683      0.134201     -1.315558
O       1.87336      9.40240      0.44455         0.032788      0.570443      1.070522
O       1.87995      9.51467     13.22232         0.390857      0.123506     -2.062727
O      13.39473      9.62286      0.27243        -0.132652     -0.128135      0.168160
O      13.34794      9.31997     13.09199        -0.167165      0.634435      1.004669
O       1.80605      9.52764      4.87196        -0.190888     -0.475067     -1.502884
O      13.32517      9.56827      4.84933        -0.250232     -0.364508     -1.877103
O       1.92494      9.47042      8.89167        -0.138810     -0.380315      0.544284
O      13.36184      9.40391      9.06659        -0.417544      0.045882     -0.558142
O       5.50310      1.80382      0.54204         0.351186      0.476100     -1.037421
O       5.80815      1.94047     13.14876        -0.159833     -0.277403     -0.554944
O       5.66440     13.33378      0.52912        -0.253240     -0.080966      0.557194
O       5.69482     13.17423     13.12153        -0.130709     -0.096435      1.362378
O       5.72458      1.86107      4.69072         0.178437     -0.110167     -0.501101
O       5.61921     13.18148      4.61993         0.228648      0.330706     -0.934317
O       5.69270      1.84667      8.97996         0.159177     -0.155807     -1.307565
O       5.69710     13.30459      9.02785         0.511708     -0.234317     -0.730251
O       5.56236      5.77144      0.62832         0.440575      0.036001     -2.665184
O       5.85506      5.59336     13.23514        -0.691022      0.263625     -1.430180
O       5.72326      5.70128      4.63034        -0.343712     -0.113324      0.505785
O       5.80350      5.68919      8.75602        -0.305197     -0.194570      0.270529
O       5.61584      9.52260      0.59221         0.328120     -0.375188     -0.499383
O       5.77822      9.46891     13.24575        -0.545327      0.143134     -0.472382
O       5.63450      9.63123      4.63334         0.181842     -0.187018     -0.889971
O       5.76294      9.38270      8.86274        -0.257837      0.194100     -1.580256
O       9.47428      1.88627      0.44308        -0.097388     -0.158416     -0.520343
O       9.36124      1.79436     13.21400         0.181356      0.328921     -0.218135
O       9.46858     13.25074      0.47587        -0.065247      0.025113     -0.510783
O       9.52501     13.24220     13.16334        -0.157723     -0.089254     -1.741719
O       9.45903      1.93238      4.56816         0.133479     -0.271538     -0.249473
O       9.53711     13.27657      4.55839        -0.100432     -0.173758      0.671068
O       9.50965      1.84213      9.02973         0.103774      0.061337     -0.466250
O       9.52093     13.29376      8.98823        -0.215521     -0.236677     -1.228593
O       9.51309      5.68256      0.40457        -0.388737     -0.021839     -0.049337
O       9.40215      5.68704     13.34518        -0.114080     -0.136484     -1.718549
O       9.58569      5.65688      4.49670        -0.020984      0.023583     -0.353147
O       9.46626      5.59018      9.05064         0.364317      0.203324     -1.359635
O       9.43418      9.52808      0.44788        -0.038750     -0.060817     -0.846418
O       9.51241      9.42756     13.24238        -0.186917     -0.130024     -0.546356
O       9.54629      9.49830      4.73262         0.214924      0.138510     -0.345579
O       9.46975      9.29601      9.04574        -0.020586      0.264697     -1.465294
O       3.68954      2.00011      2.72604         0.723909     -0.315882     -0.111071
O       3.84675      1.74842     15.31077         0.573146     -0.106059     -0.019306
O       3.65975     13.25989      2.71510         1.295504     -0.349469     -0.387328
O       3.81264     13.34935     15.35371         0.546602      0.164901     -0.248300
O       0.10428      1.98487      2.73443        -1.520865     -0.466729     -0.782731
O       0.04372      1.90326     15.37981         0.205027      0.167575     -0.127491
O      15.18600     13.25685      2.40869        -0.497128     -0.269160      0.452941
O       0.01255     13.17991     15.27107         0.078575     -0.009068     -0.019915
O       3.82204      1.76593      6.67711        -0.027735      0.460831      0.795092
O       3.80656     13.29349      6.80598        -0.341225     -0.309886      0.420121
O      15.15768      1.85532      7.00474        -0.666406      0.075727     -0.157866
O      15.13656     13.19809      6.98471         0.368723      0.009875     -0.433059
O       3.83821      1.69154     11.13872         0.213171     -0.101088      0.140983
O       3.77938     13.39926     10.93857         0.437376      0.089069      1.038214
O       0.02190      1.95426     11.14159        -0.651873      0.263171     -0.108750
O       0.01992     13.16212     11.08794         0.008488     -0.098903     -0.000267
O       3.76742      5.81766      2.58435        -0.655897     -0.104316      0.432094
O       3.78100      5.77735     15.28919         0.671520      0.441875      0.156415
O      15.17116      5.64166      2.49346         0.090967      0.537168      0.172624
O       0.03360      5.55183     15.35816        -0.077268      0.123222     -0.292602
O       3.77954      5.62382      6.74774         0.834545      0.283915      0.167211
O      15.19962      5.62557      6.80357        -1.132356      0.122843      0.190912
O       3.81564      5.66622     10.96141         1.020374      0.191254      0.130718
O       0.03610      5.44062     11.06688        -0.542878      0.645938     -0.161960
O       3.81014      9.63435      2.64437        -0.912835     -0.705945      0.137146
O       3.82246      9.38743     15.41822        -0.498827      0.145687     -0.433966
O      15.13553      9.51620      2.69443        -0.029386      0.226545     -0.551305
O      15.18371      9.55198     15.29135         0.565225      0.778933     -0.165433
O       3.77636      9.44266      6.79479        -0.002691     -0.118458      0.210052
O      15.09460      9.36441      6.91029        -0.015944      0.132457      0.316774
O       3.81814      9.35255     11.13644        -0.632041     -0.059634     -0.357120
O      15.19525      9.47583     11.16423         0.182888     -0.116683     -0.492394
O       7.55553      1.87394      2.59644        -0.674267     -0.253935     -0.213649
O       7.52508      1.95065     15.50848         0.774981     -0.194485     -0.340331
O       7.55941     13.40642      2.64733        -0.437700     -0.373088     -0.116432
O       7.63407     13.16857     15.35153        -1.075354     -0.106902     -0.081704
O       7.67587      1.84918      6.81871        -0.240422     -0.090348     -0.044887
O       7.58791     13.28099      6.67931         0.111789     -0.122747      0.438977
O       7.58640      1.99601     11.05609         0.206873     -0.193919      0.288312
O       7.62408     13.02392     11.12407         0.430265      0.303355     -0.466439
O       7.54794      5.75840      2.65465         0.980925     -0.275753     -0.476522
O       7.52970      5.63905     15.38500        -0.364863      0.054032      0.681311
O       7.72184      5.66456      6.64033        -1.789767     -0.111314      0.474711
O       7.55885      5.50777     10.98016        -0.896901      0.183452      0.274201
O       7.65070      9.48566      2.68322        -0.008271      0.100852     -0.218650
O       7.56787      9.66142     15.37961         0.406834     -0.376155      0.264026
O       7.55215      9.36500      6.73747         0.223564      0.642440      0.079406
O       7.54126      9.42184     11.04390         0.192159      0.383234      0.132595
O      11.42047      1.90365      2.54478         0.263574     -0.095582     -0.062751
O      11.36595      1.82759     15.37738         0.129730     -0.193924     -0.291569
O      11.39694     13.23630      2.50798        -0.062966      0.438489      0.047213
O      11.42767     13.50473     15.29996        -0.197378     -1.176174     -0.568638
O      11.35397      1.79359      6.84260         0.383042      0.209921     -0.128421
O      11.34283     13.23230      6.78878         0.253412     -0.242798      0.156867
O      11.37852      1.71187     11.23008         0.078928      0.505252     -0.305644
O      11.41222     13.35376     11.18583        -0.385259     -0.012930     -0.445407
O      11.39915      5.56882      2.49963        -0.188249      0.435792     -0.046716
O      11.30433      5.86587     15.27146         0.882327     -0.585167      0.034117
O      11.36488      5.64992      6.83395         0.588914      0.289958      0.232231
O      11.41807      5.62400     11.18329        -1.091024      0.278070      0.067890
O      11.43930      9.49477      2.47878        -0.062491      0.261353      0.160716
O      11.44960      9.37260     15.37381        -1.088229     -0.031643     -0.256536
O      11.37105      9.51527      6.92749        -0.471628     -0.259341      0.210554
O      11.35462      9.33277     11.15154         0.673823     -0.237159     -0.119831
O       1.91257      3.81779      2.61560         0.041762      0.726585     -0.328477
O       2.07149      3.82705     15.37808        -0.302605     -1.036000     -0.110787
O       1.88327      0.04123      2.77739        -0.194496      0.028448     -1.217304
O       1.83033     15.11966     15.41033         0.273969      0.540580     -0.638746
O      13.28641      3.80312      2.50441         0.175083     -0.708462      0.203464
O      13.21565      3.75139     15.30695        -0.029513     -0.004325      0.134290
O      13.34040     15.18830      2.52559        -0.142270      0.036371      0.025033
O      13.44441     15.08108     15.31656        -0.108704      1.337632      0.003986
O       1.89865      3.77466      6.95224         0.077933     -0.357141      0.102486
O       1.79253     15.16454      7.00496         0.165275     -1.065903     -0.226867
O      13.19655      3.75802      6.90457         0.390316      0.145401     -0.240451
O      13.31315     15.08364      6.87860        -0.256141      0.857172     -0.112163
O       2.04556      3.73036     11.01571         0.094048      0.384285      0.325438
O       1.73562      0.01868     11.18345         0.541332     -1.753737      0.185778
O      13.18478      3.74529     11.14845         0.046777     -0.373684      0.161498
O      13.42929     15.19839     11.23792        -0.034468     -0.362314     -0.445217
O       1.88306      7.68510      2.67598        -0.103375     -0.680821      0.217213
O       1.73616      7.62790     15.26589         0.656808     -1.292811     -0.342370
O      13.24570      7.61535      2.38978         0.134048      0.105749      0.574871
O      13.44575      7.59728     15.39969        -0.572206     -0.609836     -0.568479
O       1.89798      7.52517      6.96477        -0.128077      0.233917     -0.440519
O      13.23360      7.47962      6.94036         0.060249      1.212547     -0.265591
O       1.88515      7.51015     11.10136        -0.041273      0.281492     -0.291880
O      13.32776      7.45502     11.20674         0.002092      1.075439     -0.823150
O       1.84096     11.33460      2.66825        -0.291925      1.436375     -0.006875
O       1.97865     11.40428     15.38250        -0.044661     -0.410072     -0.258707
O      13.25452     11.38835      2.58668         0.325157     -0.351197     -0.266911
O      13.15825     11.36257     15.17898         0.197218      0.639794     -0.051019
O       1.92127     11.28583      6.92306        -0.287095      1.809362      0.176514
O      13.29765     11.40935      6.84859        -0.136716     -0.869009      0.341244
O       2.03159     11.29265     10.95453        -0.062963      0.585784      0.604012
O      13.19935     11.38863     11.18373         0.221339     -1.381608     -0.475372
O       5.63796      3.79918      2.64648        -0.039415      0.220762     -0.243913
O       5.57294      3.77075     15.35517         0.305928      0.330724      0.127436
O       5.44503      0.04144      2.65365         0.667802     -0.664017      0.081489
O       5.81357     15.18769     15.35103        -0.199197     -0.903846     -0.318263
O       5.70670      3.73904      6.82407         0.368100      0.309828     -0.061916
O       5.70345     15.13781      6.92926         0.507153     -0.716056     -0.580003
O       5.52433      3.68128     10.99622         0.340707      2.651389     -0.143123
O       5.89577     15.08402     11.20952        -0.520020      1.061535     -0.419208
O       5.77153      7.65662      2.78227        -0.702604     -0.126748     -0.388985
O       5.76678      7.61536     15.36060         0.118373     -0.274761      0.276256
O       5.64393      7.60541      6.78748         0.246236     -0.851591     -0.303808
O       5.71903      7.53127     11.13503        -0.209945     -1.050047     -1.060289
O       5.74483     11.43868      2.60786        -0.008502      0.099028     -0.151549
O       5.58540     11.37203     15.48425         0.164207      0.788653     -0.248540
O       5.69193     11.37398      6.86446         0.310197      0.034725     -0.003830
O       5.61424     11.31725     11.02029        -0.167451     -0.481005      0.090829
O       9.41458      3.74557      2.50363         0.104285      0.729438      0.076669
O       9.40688      3.74602     15.42188         0.398299      0.183048     -0.280797
O       9.47156      0.01455      2.60202         0.214488     -0.928633      0.047076
O       9.38949     15.11890     15.32163        -0.237218      1.009917      0.113519
O       9.66165      3.80658      6.70610        -0.915395     -0.853656      0.178952
O       9.62282     15.13769      6.76284        -1.206321      0.146065     -0.362069
O       9.52446      3.74428     11.24055         0.319688     -0.207268      0.003059
O       9.32689     15.13218     11.13592         0.145806     -0.380595     -0.065168
O       9.59692      7.54961      2.66414        -0.320028      0.807057     -0.637384
O       9.37521      7.63928     15.54246        -0.393892     -0.397592     -0.558899
O       9.54875      7.55541      6.73195         0.023787      0.510249      0.450144
O       9.42857      7.48229     11.21112         0.116270     -0.045879     -0.207701
O       9.53597     11.35318      2.56467        -0.418360     -0.063466      0.089342
O       9.64635     11.39264     15.32479        -0.078129     -0.327591      0.046903
O       9.49004     11.39117      6.89481        -0.459337     -0.057471      0.026353
O       9.69778     11.30909     11.06693        -0.680149      0.051621     -0.405725
