  # total energy = -7866.41054920 
CRSYTAL
PRIMVEC
    15.010000000000000    0.0000000000000000    0.0000000000000000
     0.0000000000000000   15.010000000000000    0.0000000000000000
     0.0000000000000000    0.0000000000000000    16.400000000000000
PRESSURE
18.7343 19.0685 11.2688 0.080349 -0.104628 0.033433
PRIMCOORD
320 1
Pb       3.58267      3.69789      3.96502         1.162743     -0.166411      1.527791
Pb       3.70113      3.69331     16.34205        -0.228780      0.168511      0.857814
Pb       3.81694     14.86762      4.10178        -0.253182      1.444479      0.339087
Pb       3.74273     14.97737      0.03519        -0.006310      0.225440      0.563139
Pb       0.00553      3.77203      4.16812         0.067532     -0.185459     -0.188320
Pb      14.96482      3.77861      0.08970         0.013294     -0.141642     -0.718851
Pb      14.98515     14.97652      4.11345        -0.251877      0.102468      0.531423
Pb       0.03653      0.01958     16.37360        -0.259950      0.168038      1.049515
Pb       3.75512      3.72663      8.13647        -0.635312      0.170363      0.935700
Pb       3.73334      0.08340      8.20224         0.162600     -0.649749      0.430353
Pb      14.92467      3.66820      8.08598         0.264818      0.569297      1.249237
Pb       0.01953      0.08593      8.20548        -0.016432     -0.717795      0.340413
Pb       3.74049      3.66869     12.43575        -0.191513     -0.024404     -0.887234
Pb       3.72647     14.97768     12.24466         0.241038      0.265882      0.545026
Pb      14.90954      3.76498     12.30462         0.476247      0.261391     -0.287444
Pb      14.93006      0.00160     12.31588         0.897820     -0.171719      0.241909
Pb       3.87786      7.50132      4.15870        -0.407938     -0.153937      0.378290
Pb       3.73870      7.57650     16.26861        -0.440145     -0.514654      1.063057
Pb       0.02637      7.51717      4.11204        -0.309779      0.223700      0.058758
Pb       0.05870      7.45903     16.38994        -0.372747     -0.008987      0.536804
Pb       3.74630      7.44367      8.33904        -0.105252      0.590157     -0.458871
Pb      14.99650      7.48760      8.12173        -0.285726     -0.030422      0.707102
Pb       3.72522      7.35810     12.38891        -0.046287      0.202127     -0.243309
Pb      14.96453      7.58096     12.32026        -0.157826     -0.805727     -0.394668
Pb       3.82813     11.18665      4.01736         0.320348      0.143933      0.648331
Pb       3.75165     11.34808      0.10600        -0.172023     -0.100185     -0.161106
Pb      14.99091     11.26578      4.13006        -0.426979     -0.216605      0.011878
Pb       0.01424     11.13328      0.01284        -0.228354      0.740029      0.700778
Pb       3.71442     11.30411      8.19307         0.061441     -0.200220      0.236092
Pb      14.97182     11.28942      8.15190         0.024681     -0.114589      0.110607
Pb       3.72458     11.13864     12.33999        -0.282446      0.705623      0.121411
Pb      14.96283     11.18391     12.29870         0.184351      0.913662      0.241831
Pb       7.43066      3.75867      4.12800        -0.046240     -0.163452      0.799363
Pb       7.44068      3.67517      0.04326         0.483513     -0.138326      0.533406
Pb       7.49210     14.99788      4.05685         0.254313     -0.000409      0.759096
Pb       7.64303     14.96910      0.02681        -0.540778      0.255345      0.523398
Pb       7.44995      3.80955      8.22784         0.587732     -0.396141      0.076935
Pb       7.41064     14.88648      8.21346         0.611725      0.459436      0.728915
Pb       7.50096      3.69969     12.37711        -0.341699      0.057279     -0.706392
Pb       7.42719      0.09485     12.24638         0.158328     -0.575757      0.472698
Pb       7.59323      7.45656      4.19623        -0.387830      0.124428      0.224284
Pb       7.44602      7.44871     16.38506         0.593137      0.200948      0.169032
Pb       7.50391      7.46652      8.09344         0.200948      0.292692      0.813428
Pb       7.42945      7.50131     12.23228         0.105377      0.105538      0.388779
Pb       7.43013     11.15755      4.11513         0.199765      0.125220      0.219140
Pb       7.45807     11.22247     16.37090         0.281105     -0.023899      0.257342
Pb       7.48142     11.24218      8.22991         0.217400     -0.224717     -0.370303
Pb       7.45810     11.26159     12.34822         0.205950      0.208816     -0.031718
Pb      11.37681      3.72057      4.13693        -1.101184      0.283473      0.148434
Pb      11.22222      3.71282      0.03635        -0.231410      0.280330      0.322811
Pb      11.16818     14.96508      4.07879         0.548942     -0.081479     -0.149651
Pb      11.35890      0.00918     16.33613        -0.203351      0.147208      1.182355
Pb      11.18787      3.67656      8.27042         0.059765     -0.107150      0.086243
Pb      11.22247     14.99537      8.13883        -0.042094     -0.036248      1.136679
Pb      11.21535      3.74056     12.35717         0.510260     -0.129869     -0.406984
Pb      11.20612     14.83293     12.28304        -0.082026      0.876065      0.647537
Pb      11.23168      7.50319      4.07043         0.611237     -0.354589     -0.055729
Pb      11.28890      7.45954     16.32140        -0.687074      0.333908      1.185484
Pb      11.34977      7.51182      8.18701        -0.318794      0.109890      0.358743
Pb      11.12458      7.57046     12.36372         0.456184      0.160545     -1.001598
Pb      11.14531     11.25396      4.08662         0.734697     -0.139230      0.134414
Pb      11.18809     11.38564     16.36978         0.340432     -0.969904      0.597761
Pb      11.30327     11.31040      8.09821        -0.533508     -0.588175      0.676593
Pb      11.23852     11.18875     12.34698        -0.076036     -0.028277     -0.362496
Ti       1.77888      1.81069      2.17934         1.577359      0.729303     -0.135702
Ti       1.82958      1.84815     14.43849        -0.331533     -0.015957     -0.330025
Ti       1.88700     13.13662      2.24899        -0.554236     -0.415269     -0.680710
Ti       1.86061     13.11662     14.47091        -0.028444      0.736893     -0.491532
Ti      13.11604      1.88385      2.11837        -0.127025     -0.875275      0.798286
Ti      13.12943      1.86403     14.35499         0.308389      1.884415     -0.710663
Ti      13.10477     13.13339      2.21187        -0.396424     -0.386368     -0.570126
Ti      13.12352     13.15364     14.47748         0.792379     -0.721533     -0.181575
Ti       1.88424      1.88280      6.22848         0.678513     -0.894353      0.448630
Ti       1.83295     13.11157      6.16097         0.231776      0.645550      1.072847
Ti      13.11806      1.78953      6.22562         0.091829     -0.179650      0.372668
Ti      13.09348     13.11360      6.24316         0.444833      0.159090     -0.579908
Ti       1.91371      1.78729     10.29663         0.554044      1.270720     -0.185375
Ti       1.91447     13.10875     10.30703        -0.826644     -0.344645      1.280692
Ti      13.18778      1.81251     10.35262        -0.840534      1.952408      0.466036
Ti      13.16460     13.16183     10.38488        -0.056287     -1.121816     -0.861093
Ti       1.84528      5.66133      2.14745         0.912611     -0.045206     -0.493096
Ti       1.82943      5.59976     14.43606        -1.076399     -1.052163      0.028118
Ti      13.18864      5.61582      2.12152        -1.280876      0.876594     -0.068110
Ti      13.05027      5.68558     14.45621         0.890098     -1.499718      0.101738
Ti       1.80025      5.63317      6.24760         0.869382      0.382448      0.420340
Ti      13.05228      5.53770      6.18167         0.691266      0.649937      0.095167
Ti       1.87902      5.54419     10.27700        -0.577716     -0.190747     -0.201923
Ti      13.11431      5.68999     10.29326         0.879911     -0.712812     -0.447707
Ti       1.98457      9.40130      2.21822        -1.537170     -0.795753     -0.688498
Ti       1.84264      9.38943     14.44410         0.060860      0.255798      0.152118
Ti      13.19597      9.39049      2.10803        -0.428666      0.105433      0.038189
Ti      13.15817      9.41311     14.45472        -1.257482     -0.490288      0.087140
Ti       1.85565      9.34173      6.21599         0.322088      0.799028      0.677392
Ti      13.12698      9.32125      6.15994        -0.066727      0.351039      0.715830
Ti       1.82228      9.33393     10.35390         0.478338     -0.032836     -0.483317
Ti      13.11231      9.44440     10.25844        -1.738653     -0.329235     -0.601088
Ti       5.64514      1.84045      2.15069        -1.949134      1.694689      0.121305
Ti       5.55013      1.78505     14.47280         0.865658     -0.225630     -0.544953
Ti       5.69957     13.17376      2.13049         0.604323     -1.425407     -0.222797
Ti       5.59471     13.12934     14.41860         0.382222      0.432805      0.013657
Ti       5.67828      1.85498      6.25063         0.238961      0.566643     -0.304566
Ti       5.59596     13.14777      6.17264        -0.143530     -1.019495      0.309278
Ti       5.65444      1.97391     10.22211        -0.305176     -1.000751      2.373873
Ti       5.63794     13.15830     10.39165         0.397467      0.573473      0.949923
Ti       5.57292      5.62272      2.21142        -0.211665     -1.303386     -0.518809
Ti       5.61435      5.53882     14.50333        -1.128309      0.916891     -0.465598
Ti       5.54859      5.62688      6.32350         0.883506     -0.092498     -0.965869
Ti       5.62605      5.66911     10.35321         0.418502     -1.346601     -0.334054
Ti       5.72166      9.27461      2.02344         0.255875      1.990288      0.825533
Ti       5.56082      9.41838     14.43084         0.340368     -1.452650     -0.287531
Ti       5.58680      9.41079      6.25197        -0.108892     -0.310363      0.272423
Ti       5.53413      9.41858     10.38723         0.021579     -0.625790     -1.178924
Ti       9.36976      1.84153      2.26531         0.009832      0.712387     -1.578635
Ti       9.34102      1.82817     14.50170        -0.036208      0.080583      0.010075
Ti       9.32642     13.03047      2.12356         1.083856      0.716893     -0.218122
Ti       9.33296     13.10906     14.46026         0.331052      0.539259     -0.228990
Ti       9.39950      1.76712      6.19703        -0.794995      1.580729      0.556805
Ti       9.29612     13.11024      6.20838        -0.000579     -1.925521      0.306040
Ti       9.40001      1.84224     10.46873         0.283354      0.032982     -1.633904
Ti       9.39264     13.09325     10.35683        -0.860208      0.504027      0.675720
Ti       9.31990      5.57388      2.27312         1.448799      0.118220     -1.215022
Ti       9.29000      5.57074     14.38868         0.313846      0.302331      0.566113
Ti       9.41094      5.58872      6.27296        -0.607750     -0.752569     -1.079241
Ti       9.42724      5.61677     10.32422        -0.848388      0.374591      0.356797
Ti       9.40966      9.32013      2.18943        -0.003591      0.285577     -1.104879
Ti       9.36164      9.32740     14.44451        -0.386342      1.026629      0.087536
Ti       9.40911      9.31201      6.15780        -0.356880      1.178217      0.988572
Ti       9.28615      9.41815     10.25777         1.180253     -0.876747     -0.036859
O       1.66592      1.86273      0.41081         0.606868     -0.053058     -0.520482
O       1.82908      1.93914     12.64180         0.267035     -0.429685     -0.055781
O       2.05436     13.10403      0.46601        -0.427701      0.076875     -0.432783
O       1.79040     13.13287     12.69802         0.104042      0.165435     -0.105825
O      13.14028      1.86677      0.35536        -0.020743      0.202544     -0.832579
O      13.26423      2.02296     12.47320        -0.288182     -0.683700      2.028102
O      12.92353     13.11030      0.40414         0.513646      0.146624     -0.362258
O      13.21846     13.13727     12.68970        -0.113215      0.104418     -0.087316
O       1.82863      1.87299      4.48651         0.196371      0.029428     -1.286937
O       1.75630     13.07648      4.39251         0.824643      0.211478     -0.249427
O      13.00274      1.83549      4.47622         0.522585     -0.302022     -0.843773
O      13.02818     13.18894      4.43598         0.300881      0.033582      0.067587
O       1.93980      1.78933      8.44335        -0.109165     -0.035560      0.338905
O       1.85546     13.20637      8.55053        -0.100251     -0.171716     -0.693678
O      12.99468      1.76400      8.54991         0.364503      0.299795     -0.416841
O      13.19732     13.14901      8.56106        -0.207803     -0.257767      0.289065
O       1.79972      5.64387      0.31626         0.324330     -0.142297      0.336496
O       1.99100      5.50295     12.65981        -0.743787      0.080218     -0.698508
O      13.25039      5.58636      0.27219        -0.625034      0.263436      1.151333
O      13.07685      5.57132     12.67953        -0.035577      0.480280     -0.782374
O       1.80285      5.74382      4.46205         0.092678     -0.429198      0.133133
O      13.21790      5.59431      4.38074        -0.248215     -0.165847      0.338355
O       1.92257      5.72021      8.43635        -0.343643     -0.478354      1.140268
O      13.00541      5.66456      8.47371         0.450947     -0.335071      0.207536
O       1.83230      9.37201      0.39546         0.207182      0.137822      0.054701
O       1.80702      9.43114     12.66372        -0.119480     -0.390619      0.124167
O      13.16183      9.33492      0.29788        -0.002933      0.306521      0.251291
O      13.06517      9.37184     12.63331         0.226362     -0.235009      0.507784
O       1.81686      9.36470      4.43336         0.547364      0.097878     -0.584914
O      13.14569      9.42568      4.39671        -0.017042     -0.236326     -0.073769
O       2.02754      9.36947      8.54155        -0.647994      0.020436      0.902626
O      13.04542      9.47503      8.40150         0.396276     -0.311294      1.662824
O       5.59363      1.85492      0.38076         0.088271      0.221335     -0.950048
O       5.58877      1.84510     12.66593         0.023926      0.134947      0.427080
O       5.62769     13.00767      0.30710         0.070409      0.571795      0.535651
O       5.63177     13.18736     12.64196        -0.077533     -0.014141     -0.258138
O       5.61066      1.89440      4.48485         0.122136     -0.424898     -0.071981
O       5.76094     13.08683      4.40527        -0.736324      0.276638     -0.626041
O       5.60092      1.88887      8.49513         0.021300     -0.143143     -1.652323
O       5.68294     13.07196      8.63724        -0.080432      0.108364     -1.292231
O       5.54053      5.62091      0.37721         0.047748     -0.280480      0.146238
O       5.66086      5.73443     12.70931        -0.319355     -0.762975     -0.645794
O       5.63644      5.51400      4.51785        -0.326964      1.033182     -0.309009
O       5.68463      5.59131      8.50302        -0.281679      0.244480      0.376402
O       5.78102      9.42700      0.23861        -0.834741     -0.431879     -0.161646
O       5.63021      9.15787     12.63359        -0.433435      1.015945     -0.447453
O       5.69694      9.37484      4.45976        -0.978306     -0.204476     -0.425024
O       5.44683      9.43936      8.53331         0.248157      0.024445      0.477456
O       9.30956      1.92394      0.37836         0.090577      0.129624      0.522761
O       9.29787      1.82664     12.69664         0.128516      0.146735     -0.019619
O       9.24745     13.06909      0.30901         0.671718     -0.244908      0.129169
O       9.40051     13.19303     12.68600        -0.187042     -0.157528     -0.306941
O       9.32152      1.94366      4.42787         0.210522     -0.847940     -0.522587
O       9.19276     12.93198      4.45722         0.976960      0.959949      0.055781
O       9.61807      1.81904      8.63051        -0.572722      0.207350     -0.119843
O       9.26888     13.13737      8.60601         0.026193     -0.250696     -1.129407
O       9.33544      5.58041      0.44484        -0.344289      0.169299     -0.206488
O       9.39023      5.55336     12.60580        -0.271416      0.269416      0.276794
O       9.48052      5.65181      4.42129        -0.505060     -0.010150      0.469312
O       9.38320      5.62620      8.51307         0.128123     -0.145003     -0.196339
O       9.35316      9.36962      0.36907        -0.380659     -0.165622     -0.262599
O       9.32893      9.47091     12.63116         0.139708     -0.606649      0.323922
O       9.49713      9.33160      4.35161        -0.521501      0.083781      0.591648
O       9.39995      9.27088      8.47864        -0.362266      0.384303      0.292157
O       3.68578      1.73779      2.37025         0.105609      0.174372      0.444228
O       3.70563      1.90127     14.83269        -0.234868      0.724439     -0.173967
O       3.84261     13.14990      2.52948        -0.049502     -0.119783     -0.289214
O       3.74911     12.97953     14.67658        -0.464421     -0.079976      0.464659
O      14.98923      1.83260      2.54148        -1.193584      0.333624      0.165491
O      14.95086      1.70940     14.69383         0.305918     -0.090698      0.063752
O      14.97384     13.08689      2.42323         0.396043      0.043077     -0.110073
O      14.98762     13.28726     14.97992         0.015078     -0.831282     -0.976497
O       3.84133      1.63431      6.52110        -1.621078      0.207254     -0.153622
O       3.69774     13.37798      6.55375         0.093235     -0.175652     -0.481045
O       0.01965      2.06008      6.44505        -1.572591      0.101224      0.286505
O      15.00122     12.95157      6.44137        -0.362031     -0.250534      0.413765
O       3.76544      1.82038     10.63659        -0.128500     -0.051593     -0.037408
O       3.78601     13.20632     10.69784        -0.606031     -0.372201     -0.234348
O       0.10653      1.77084     10.53428        -2.317260     -0.084715      0.033220
O      14.99853     12.97086     10.67594         0.643615      0.882205     -0.247866
O       3.69994      5.60470      2.57521         0.458415      0.556886     -0.399426
O       3.64196      5.42546     14.65018         1.786307     -0.249863      0.777034
O       0.04953      5.64876      2.55565        -1.220685     -0.623030     -0.551500
O      14.96892      5.71509     14.70767        -0.098167      0.119290     -0.245921
O       3.72933      5.83049      6.49368        -0.635175     -0.027502      0.083759
O      14.95826      5.47829      6.59855        -0.303096     -0.318641     -0.293486
O       3.72468      5.52819     10.53739         0.275349      0.492225      0.426587
O       0.00058      5.76434     10.54999        -0.766684     -0.518980      0.353145
O       3.86938      9.46500      2.42947        -0.715094     -0.365003     -0.037448
O       3.64280      9.60638     14.82136         0.879655     -0.652415     -0.220167
O       0.03666      9.56831      2.53485         0.206026     -0.594818     -0.782816
O      15.00069      9.27156     14.84051         0.142981      0.209760     -0.658650
O       3.67726      9.10180      6.45814         1.078581      0.391829     -0.139291
O      14.98337      9.46559      6.61335         0.036362      0.297424     -0.350377
O       3.66870      9.28115     10.78351         0.444470      0.246380     -0.243537
O      14.91053      9.44376     10.65143         1.525555     -0.463431     -0.109022
O       7.41608      1.92410      2.48467         2.129988      0.339840     -0.036381
O       7.43684      1.65566     14.76305         0.406606      0.236441     -0.048163
O       7.59401     13.16244      2.58123        -2.749859      0.207619     -0.767743
O       7.50502     13.24085     14.72060        -0.739884      0.023116     -0.085534
O       7.56823      2.07286      6.58892        -0.529935     -0.342873      0.052562
O       7.42589     12.92202      6.55401         0.457935     -0.293812      0.421443
O       7.51481      1.93125     10.53424        -0.212223      0.249964      0.506518
O       7.49727     13.10886     10.79340         0.063439     -0.397468     -0.425691
O       7.46397      5.60222      2.59450        -0.680324      0.127863     -0.637785
O       7.41030      5.72184     14.79976         0.963433      0.029060     -0.148606
O       7.52752      5.34486      6.47518        -0.289763      0.790449      0.183548
O       7.49081      5.60572     10.61859        -0.176967     -0.143970      0.109216
O       7.49105      9.29738      2.54929         0.456113     -0.482582     -0.452940
O       7.39121      9.21309     14.63815         1.484357      0.190024      0.308693
O       7.49717      9.44549      6.38820         0.141498      0.516243      0.755067
O       7.40685      9.31808     10.47443         0.274312      0.454182      0.507970
O      11.23383      1.84469      2.48138        -0.119698      0.024066     -0.114178
O      11.27138      2.04285     14.74217        -0.672734     -0.409225     -0.316344
O      11.18005     13.08664      2.54812        -0.259636      0.203960     -0.260709
O      11.28020     13.08394     14.71035        -0.552286      0.206508      0.108910
O      11.22588      1.55598      6.44249         0.161884     -0.191844      0.080352
O      11.22398     13.23112      6.53503        -0.426393      0.105275     -0.228208
O      11.25277      1.79621     10.82630         0.521807      0.281825     -0.337601
O      11.24771     13.10455     10.77529         0.426097      0.212720     -0.664423
O      11.30124      5.73635      2.43659         0.474002     -0.456957     -0.324949
O      11.13948      5.47851     14.77292         0.449650      0.302982     -0.139637
O      11.27097      5.74723      6.42872        -0.236596      0.450453      0.388730
O      11.27308      5.63360     10.64673        -1.056969     -0.246455      0.228307
O      11.28425      9.38884      2.45102        -0.431810     -0.177301     -0.339631
O      11.22790      9.38434     14.79943         0.034753      0.154161     -0.481922
O      11.25322      9.23555      6.56475         0.080844      0.078243     -0.701520
O      11.22618      9.47978     10.61605        -0.508148     -0.388981      0.139232
O       1.87889      3.77708      2.48931        -0.788147     -0.780988     -0.541724
O       1.64984      3.62904     14.80090         0.423208      1.742033      0.154851
O       1.82576     14.97079      2.58234         0.109989     -0.026343     -0.188424
O       2.02752      0.02326     14.87873        -0.641541     -1.016405     -0.281820
O      13.05777      3.71916      2.48079         0.795385      0.905258     -0.395224
O      13.22399      3.77556     14.72871         0.023709     -0.729814      0.006726
O      13.02389      0.02726      2.40922         0.227689     -0.759588      0.347905
O      13.08271      0.03691     14.66718        -0.608534     -0.498611      0.103409
O       1.96669      3.75429      6.56331         0.204708      0.281910     -0.206203
O       1.48676      0.03341      6.41031         1.131026     -0.941315      0.016491
O      12.80395      3.62521      6.44235         0.791984      1.199118      0.515268
O      13.32896     14.95865      6.61535        -0.250454      0.235785     -0.438745
O       1.76030      3.67032     10.57598         0.342985      0.924518     -0.241292
O       1.88551     14.95195     10.68642        -0.265049     -0.186694     -0.016280
O      13.15180      3.74450     10.51305         0.068451      0.151665      0.084141
O      13.15646      0.01740     10.74627        -0.103235     -1.440199     -0.151034
O       1.80955      7.51675      2.46102         0.504359      0.591168     -0.125765
O       1.93625      7.46063     14.62266         0.298491      1.211124      0.274877
O      13.23998      7.53261      2.38054         0.099437     -0.764320      0.066491
O      13.04092      7.52852     14.76653        -0.042605     -0.422478     -0.373128
O       1.67773      7.52789      6.59040        -0.097630     -0.935594     -0.568445
O      13.25427      7.44725      6.46820        -0.020211      0.159799     -0.084069
O       1.77088      7.46694     10.72572         0.532424      0.438919     -0.198425
O      12.95295      7.55606     10.57501         0.621744      0.195122      0.228762
O       1.96784     11.26044      2.51778         0.048242      0.176152     -0.139808
O       1.73016     11.32276     14.77344        -0.339666     -1.611128      0.134375
O      13.02975     11.24884      2.45567         0.265150      0.552407     -0.014576
O      13.17080     11.22936     14.75073         0.253221      0.822733      0.025257
O       2.00308     11.25834      6.56029         0.031351     -0.017288     -0.224435
O      12.98271     11.24179      6.47515         0.223309      0.225686     -0.029982
O       1.94366     11.22647     10.77662        -0.138160      0.156383     -0.799493
O      13.12349     11.28429     10.74582        -0.401113     -0.113161     -0.415561
O       5.48194      3.70195      2.64095         0.550902      0.855411     -1.308178
O       5.71509      3.67826     14.74185        -0.309942      0.420442      0.021345
O       5.76050      0.05137      2.50149        -0.710025     -2.246129     -0.054312
O       5.37122     14.97274     14.77660         0.582324     -0.377966     -0.046295
O       5.41019      3.75780      6.63396         0.763096     -0.645812     -0.641419
O       5.84528     14.92342      6.47851        -0.139221      1.828111      0.227942
O       5.53332      3.72433     10.71226         0.436237      1.407404      0.087420
O       5.77502      0.10565     10.62578        -0.887515     -1.479443     -0.330056
O       5.55421      7.49399      2.30516         0.041923     -0.901368      0.579008
O       5.32805      7.48673     14.68637         0.351181     -0.307651      0.359884
O       5.79605      7.55018      6.50478        -0.278901     -1.329300      0.085910
O       5.53871      7.47690     10.60903         0.049001      0.194100     -0.088467
O       5.82364     11.24615      2.33773        -0.735554      0.320227      0.120380
O       5.67895     11.23479     14.58256         0.366903      0.519944      0.259924
O       5.37668     11.29383      6.49001        -0.088479     -0.745753      0.255898
O       5.57571     11.25721     10.71665        -0.099826     -0.286992      0.100429
O       9.42672      3.73366      2.47401        -0.183913      0.085711      0.115886
O       9.11579      3.71722     14.75295         0.231061      0.158569     -0.251359
O       9.29361     14.98261      2.34713         0.328439      0.157049      0.514037
O       9.48743     15.00970     14.98229        -0.118519     -0.088380     -1.145721
O       9.62738      3.73690      6.43967         0.095404     -1.026376      0.541447
O       9.11766     14.88918      6.53839         0.364835      1.799741     -0.206945
O       9.29900      3.74167     10.72138         0.766721      0.438798     -0.178936
O       9.26519     14.97693     10.64837         0.547892      0.062068      0.280695
O       9.38508      7.48565      2.53207        -0.342982     -0.043322     -0.273070
O       9.37160      7.49600     14.67131         0.169893     -1.007182      0.139170
O       9.25156      7.47750      6.46989        -0.157189     -0.130571      0.011851
O       9.25699      7.52236     10.64808         0.968641     -0.397593      0.106149
O       9.21327     11.23535      2.47415         0.677750     -1.170081     -0.366172
O       9.33025     11.27888     14.67321        -0.280761     -0.959008      0.244355
O       9.47474     11.19574      6.61411        -0.093518      0.265033     -0.294543
O       9.37175     11.25130     10.68042        -0.579845     -0.111465     -0.097076
