  # total energy = -7882.55920654 
CRSYTAL
PRIMVEC
    15.3600000000000000    0.0000000000000000    0.0000000000000000
     0.0000000000000000   15.3600000000000000    0.0000000000000000
     0.0000000000000000    0.0000000000000000    17.440000000000000
PRESSURE
1.56976 1.73138 2.68743 0.09476 0.003819 -0.019979
PRIMCOORD
320 1
Pb       3.77002      3.83275      4.33746         0.436840      0.249454     -0.207654
Pb       3.84505      3.83107     17.37149         0.318699      0.144646      0.248310
Pb       3.81637      0.02186      4.27555        -0.174317      0.056721      0.037630
Pb       3.70341      0.04232      0.00231         0.072832     -0.537933     -0.532172
Pb       0.00955      3.74602      4.36721        -0.587806      0.021807     -0.587053
Pb       0.05289      3.96223     17.37810        -0.824485     -0.592598      0.529730
Pb      15.34313     15.30387      4.29933         0.164787      0.150636     -0.209713
Pb      15.24074     15.28221     17.42951         0.851379      0.169949     -0.298912
Pb       3.77341      3.73184      8.76051        -0.065283      0.270698     -0.367036
Pb       3.90438     15.35296      8.61877        -0.547254      0.001533      0.604125
Pb      15.30412      3.82014      8.68899        -0.090352     -0.465268     -0.642442
Pb      15.27054      0.04250      8.66251         0.465219     -0.210375      0.095440
Pb       3.65539      3.76464     13.04988         0.339202      0.618377     -0.097303
Pb       3.72710     15.27281     13.01309         0.473405     -0.195467      0.346500
Pb       0.00063      3.80569     13.04986        -0.431746     -0.415265     -0.124766
Pb       0.04064     15.35467     13.01971        -0.400626      0.201042      0.374592
Pb       3.83620      7.63659      4.29947        -0.082703      0.020953     -0.124158
Pb       3.77178      7.60385     17.34845         0.139402      0.643612      0.428690
Pb       0.03779      7.75877      4.37247        -0.003408     -0.410964      0.108964
Pb      15.12326      7.69774     17.32580         1.251294      0.081868      0.528137
Pb       3.91367      7.66171      8.74872        -0.107242     -0.473136     -1.072027
Pb       0.08087      7.59642      8.67347        -0.329731      0.447123      0.077454
Pb       3.77078      7.60840     12.96552         0.430563      0.024473      0.305910
Pb       0.04291      7.62710     13.07639        -0.394114      0.263279     -0.552774
Pb       3.76701     11.56898      4.21521         0.358455     -0.677145      0.117836
Pb       3.96179     11.54139     17.41679        -0.313094     -0.089561     -0.112709
Pb      15.29464     11.57517      4.34240         0.704322     -0.264698      0.267297
Pb      15.29427     11.58231     17.30826         0.256738     -0.265203      0.010245
Pb       3.82483     11.54695      8.60862        -0.269447      0.104630      0.229823
Pb      15.24543     11.38619      8.64798         0.770995      0.361515      0.540236
Pb       3.83780     11.52554     13.15800         0.340240      0.185238     -0.377533
Pb       0.04049     11.55941     13.12334        -0.222221     -0.185631     -0.546368
Pb       7.72146      3.73431      4.41306        -0.272742      0.565662     -0.098766
Pb       7.65022      3.90987     17.35197         0.131534     -0.224617     -0.467040
Pb       7.73973      0.07884      4.30039        -0.535496     -0.064821     -0.193641
Pb       7.67402      0.05917     17.35154        -0.393365     -0.047040      0.010289
Pb       7.71335      3.71447      8.75954        -0.312113     -0.052775      0.409744
Pb       7.63064     15.17060      8.62747         0.027949      0.440880      0.651146
Pb       7.75447      3.83627     13.18837        -0.055491      0.550040     -0.670675
Pb       7.57418      0.08986     13.08528         0.358490     -1.223317      0.081982
Pb       7.66461      7.57578      4.29997        -0.395552      0.214432      0.015572
Pb       7.68826      7.72243     17.39213         0.084115     -0.465113     -0.325196
Pb       7.60144      7.69915      8.64774        -0.140007      0.005335      0.273922
Pb       7.50715      7.65878     12.98972         0.884670     -0.015676      0.164257
Pb       7.66965     11.55018      4.32723        -0.437569     -0.298353     -0.365668
Pb       7.76987     11.49682      0.07093        -0.259526      0.311120     -0.759127
Pb       7.45968     11.49799      8.57931         0.556997      0.253272      0.228030
Pb       7.66804     11.40811     13.08471        -0.063427      0.457839     -0.324871
Pb      11.43540      3.80219      4.32610         0.341189      0.654393      0.006234
Pb      11.70540      3.85308     17.38141        -0.848185      0.041519      0.380223
Pb      11.41130     15.28174      4.27858         0.525068      0.577701      0.268773
Pb      11.50389     15.31085     17.41389        -0.640415      0.067443     -0.143895
Pb      11.38136      3.86389      8.70264         0.546527     -0.587826      0.378267
Pb      11.53685     15.26876      8.65884        -0.420704      0.147465      0.486236
Pb      11.58763      3.76647     13.10896        -0.273020      0.490747     -0.415971
Pb      11.61870      0.00013     12.90287        -0.575367     -0.305553      0.711902
Pb      11.42054      7.75399      4.28720         0.816982     -0.593017     -0.185365
Pb      11.60007      7.60799     17.38220        -0.583038      0.204810      0.069128
Pb      11.42235      7.63411      8.71243         0.656545      0.468665      0.536669
Pb      11.45312      7.70688     12.95967         0.257186     -0.270670      0.113522
Pb      11.56137     11.45632      4.36248         0.246254     -0.185297      0.130117
Pb      11.47498     11.45150     17.40187         0.351176     -0.034586     -0.321568
Pb      11.60715     11.52014      8.62701        -0.415164     -0.458045      0.330780
Pb      11.51003     11.45138     12.98279        -0.056416     -0.228305      0.107895
Ti       1.88100      1.92391      2.24732        -1.004934     -0.184472      0.646508
Ti       1.86065      1.99738     15.47524        -0.839166     -1.749574      0.432622
Ti       1.89621     13.38354      2.25886        -0.300871      0.270780     -1.523700
Ti       1.96258     13.46009     15.42627        -0.433400      0.077631     -0.124157
Ti      13.32607      1.86331      2.24054         1.310522      0.755252      2.828742
Ti      13.36734      1.79862     15.49044         0.832044      2.016529     -0.883925
Ti      13.32172     13.41808      2.34383         1.563269     -0.351019      0.132083
Ti      13.41105     13.41466     15.36012        -0.032617     -1.009271      0.637714
Ti       1.84389      1.85195      6.62173        -0.171160      0.036807      0.692512
Ti       1.87227     13.38743      6.72222        -0.656667      0.628919     -0.553366
Ti      13.34784      1.82406      6.62965         0.686792      1.406497      1.503803
Ti      13.40965     13.37164      6.57601         0.502610      0.571847      0.459333
Ti       1.89133      1.90414     11.03888        -1.506609     -0.478179     -0.900769
Ti       1.84521     13.44431     11.05031         1.164554     -0.902268      0.114733
Ti      13.37623      1.92412     10.98629         0.594524     -0.581626      0.135803
Ti      13.44979     13.41594     11.09092        -0.048970     -1.388198      1.233714
Ti       1.85993      5.74239      2.35165         0.086209      0.383021      0.308553
Ti       1.89276      5.76969     15.43613        -0.436596      0.676716     -0.821529
Ti      13.43950      5.72083      2.47103        -0.415231     -0.125609      1.542178
Ti      13.39549      5.74118     15.28736         0.001704     -1.145967      0.535153
Ti       1.88011      5.72979      6.65920         1.187998     -0.420334      0.951339
Ti      13.38387      5.79391      6.69030         0.536252     -0.884891     -0.447338
Ti       1.86731      5.75859     11.04502         1.201523     -0.541904     -0.117737
Ti      13.45221      5.70387     11.04269        -0.827614      0.497101      3.208250
Ti       1.99728      9.55808      2.29844        -0.329248     -0.571587      0.160920
Ti       1.96920      9.60952     15.41322        -0.073153      0.215619      1.929091
Ti      13.62760      9.57137      2.35187        -1.620623      0.014369      0.767389
Ti      13.48242      9.49824     15.28132        -0.600583      1.800432      1.497835
Ti       2.02323      9.56305      6.70952        -0.816845      0.033262     -1.035806
Ti      13.50491      9.53290      6.71015        -0.577116     -0.405692     -0.455173
Ti       1.96178      9.63060     11.11850        -1.069126      0.974403     -0.461719
Ti      13.48595      9.59908     11.04341        -0.311826     -0.110500      0.615448
Ti       5.74680      1.92720      2.32083         0.063431      0.490006     -0.094685
Ti       5.65767      1.88373     15.33109         1.598773     -0.392289      0.905442
Ti       5.68258     13.45993      2.28437         0.898923     -0.291919      0.998410
Ti       5.76834     13.39926     15.38541         0.467801      0.182005     -1.279447
Ti       5.70756      1.93893      6.70661         0.037841     -0.287285     -0.044260
Ti       5.70616     13.47976      6.57526         0.173248     -0.396086      0.174741
Ti       5.69067      1.94040     11.25928         0.745197     -0.403501     -1.554452
Ti       5.75696     13.40902     11.13045         0.750434     -0.102967      0.902214
Ti       5.74560      5.72625      2.32178        -0.459199     -0.045519      0.537178
Ti       5.70430      5.71473     15.30263         1.844977     -0.057210      0.334781
Ti       5.77661      5.65386      6.76842        -1.150755      1.082540      0.015352
Ti       5.75758      5.69286     11.04786         0.490956     -0.047980      1.220599
Ti       5.81807      9.60177      2.24955        -0.456045     -0.066093      1.542865
Ti       5.81333      9.53668     15.45429        -0.444384      0.893270     -0.094057
Ti       5.81884      9.61022      6.52501        -1.145606     -0.328691     -0.242167
Ti       5.70151      9.54584     10.97233         1.547757      0.732836      1.840526
Ti       9.59474      1.96550      2.26147        -0.181104      0.069726     -1.411257
Ti       9.54107      1.95641     15.32861         0.065086      0.276592      2.883951
Ti       9.53883     13.42181      2.31816         0.200306     -0.058992     -0.463116
Ti       9.59228     13.47810     15.41918        -0.458486     -0.871274     -0.746774
Ti       9.56176      1.84157      6.77301        -0.471968      0.345991      1.251803
Ti       9.59223     13.36084      6.60972        -0.244812      0.380542      2.106647
Ti       9.53129      1.88634     11.13653         0.434717      0.117856     -0.503763
Ti       9.60064     13.34719     11.05976        -0.216435      0.672295      1.705937
Ti       9.49089      5.72780      2.29855         1.716636      0.129778      1.147461
Ti       9.67025      5.76736     15.34902        -1.404859      0.473211     -0.648836
Ti       9.55771      5.82227      6.80984         0.147180     -2.049119     -1.789201
Ti       9.58540      5.76513     11.02555         0.452485     -0.295151      1.852205
Ti       9.64978      9.64491      2.39834        -0.169899     -0.368779      0.157225
Ti       9.62728      9.58629     15.40922         0.557216      0.246207      0.025234
Ti       9.59749      9.57448      6.63222         0.956396      0.901209      2.597962
Ti       9.56672      9.56383     10.89654         0.436807     -0.221381      1.256516
O       1.81331      1.86515      0.48700         0.718218      0.202335      0.050624
O       1.76722      1.99641     13.72950         0.407317      0.171877     -0.849490
O       1.88944     13.46386      0.39949         0.164372      0.051026      1.344934
O       2.04454     13.40054     13.64246        -0.375713      0.415579      0.055909
O      13.36421      2.02745      0.56696         0.088837     -0.462090     -2.667726
O      13.39670      1.84777     13.73072        -0.020022      0.053703     -0.098279
O      13.32879     13.31519      0.57424         0.363536      0.252402      0.150795
O      13.52729     13.41690     13.63170        -0.380408     -0.045995     -0.446614
O       1.75812      1.80558      4.85583         0.318069      0.342077     -0.373385
O       1.70176     13.40861      4.94937         0.992917     -0.027182      0.048850
O      13.45677      1.81870      4.92075        -0.205562     -0.086580     -0.657836
O      13.38663     13.42805      4.79867         0.180412      0.259117      0.710591
O       1.76354      1.86181      9.27375         0.549494      0.148943      0.429092
O       1.96162     13.31614      9.32710        -0.062372      0.304538     -0.871855
O      13.40676      1.89089      9.23807        -0.023741     -0.041186     -0.377797
O      13.36422     13.27312      9.40143         0.024874      0.153197     -2.295538
O       1.85445      5.69518      0.60882         0.086201      0.259908     -1.590612
O       1.87355      5.74264     13.64821         0.109303     -0.291513      0.504865
O      13.29222      5.71466      0.76140         0.517002      0.450675     -1.864086
O      13.35245      5.73194     13.57188         0.502985     -0.059603     -0.733559
O       2.12317      5.69840      4.92560        -0.800108      0.174607     -0.105564
O      13.50677      5.85338      4.94398        -0.676405      0.033109     -0.254481
O       1.93359      5.77567      9.30190        -0.201523      0.014666     -0.462752
O      13.37743      5.69945      9.38467         0.189490     -0.053532     -2.800311
O       1.93676      9.53948      0.57383        -0.103017     -0.203990     -1.052815
O       2.07643      9.56416     13.72950        -0.012330     -0.223213     -2.533499
O      13.51800      9.61583      0.61036         0.234973     -0.167952     -0.846637
O      13.46135      9.62772     13.59465         0.100569     -0.302208     -1.546017
O       1.95231      9.47234      4.93785         0.315515      0.366043      0.220824
O      13.53487      9.42786      4.95957        -0.054987      0.206268     -0.371996
O       1.80196      9.74276      9.37923         0.736261     -0.524369     -0.315308
O      13.44171      9.64293      9.30499         0.488531      0.155679     -1.394366
O       5.87745      1.94326      0.55816        -0.778750      0.093856      0.339693
O       5.87104      1.70419     13.61150        -0.856607      1.256211     -0.997503
O       5.63715     13.44687      0.56376        -0.005953      0.431367     -0.623589
O       5.83393     13.33213     13.53218        -0.245983      0.091169      1.641035
O       5.73366      2.01310      4.96909         0.107421     -0.422228     -0.476468
O       5.69386     13.43921      4.83440         0.157289      0.031946     -0.279356
O       5.58251      1.89678      9.49228         0.131060      0.010775     -0.621375
O       5.79190     13.38330      9.35296         0.015363     -0.061591     -0.346689
O       5.81898      5.75456      0.58373        -0.312903     -0.252192     -0.568359
O       5.87238      5.65966     13.56423        -0.602941      0.500715     -0.062559
O       5.71056      5.72110      5.03847         0.166231     -0.137489     -0.896526
O       5.64251      5.66169      9.33351         0.110040      0.381351     -1.583332
O       5.84810      9.49826      0.51801        -0.019467      0.112511     -1.050291
O       5.75722      9.60681     13.69175         0.171881     -0.093321      0.001187
O       5.84072      9.74323      4.76801        -0.332379     -0.341538      0.501680
O       5.82884      9.53068      9.26361        -0.312519      0.192072     -1.864835
O       9.65905      1.92185      0.49061        -0.505952      0.153223      1.037109
O       9.48601      1.96233     13.62718         0.451448     -0.230505     -1.564826
O       9.59049     13.42700      0.55130         0.077762     -0.035281      0.822585
O       9.65207     13.34087     13.65265        -0.089208      0.190765      0.727911
O       9.48714      2.00285      5.05872         0.185469     -0.334426     -1.339272
O       9.76732     13.53755      4.93061        -0.452332     -0.103369     -2.239209
O       9.62191      1.85157      9.38715        -0.486321      0.202726     -0.681955
O       9.53113     13.40428      9.35604         0.046156     -0.108299     -1.723565
O       9.68996      5.71861      0.59291        -0.447041      0.256130     -0.952161
O       9.56807      5.81928     13.58577         0.263917     -0.051921      0.357668
O       9.57443      5.67413      4.96597        -0.104016      0.483393      1.612386
O       9.66743      5.76026      9.29545        -0.123675      0.008456     -1.687221
O       9.60878      9.64809      0.67447         0.064152     -0.054136     -1.119349
O       9.66888      9.51845     13.68857        -0.314339      0.469419     -0.956323
O       9.72378      9.58977      4.95162        -0.531256     -0.203988     -2.247214
O       9.60254      9.50453      9.16989        -0.298444      0.271795     -1.089247
O       3.81816      1.96238      2.74271        -0.326237     -0.528950     -0.421993
O       3.83473      1.99374     15.78977        -0.682838     -0.183810      0.184475
O       3.84442     13.48531      2.75577        -0.851035     -0.018787     -0.068367
O       3.84063     13.49112     15.78529         0.184270     -0.132580      0.222959
O      15.26461      1.99115      2.63193         1.067806     -0.613308      0.240921
O       0.02252      1.90169     15.86292        -0.974574      0.171512      0.290721
O       0.08253     13.41167      2.73913        -0.946187     -0.161706     -0.350014
O      15.30351     13.55394     15.78797         0.193818     -0.630703      0.175678
O       3.74020      1.81281      7.08216         0.619732      0.511345     -0.027304
O       3.85316     13.49194      7.08619        -0.810376     -0.488759     -0.088377
O      15.29880      1.83624      7.13004        -0.338678      0.384462     -0.256890
O      15.34263     13.43814      7.08881        -1.026348     -0.278010     -0.056967
O       3.75533      2.02006     11.50909        -0.006614     -0.403658      0.314350
O       3.92409     13.48976     11.53256        -1.092234     -0.262245     -0.252796
O      15.30404      1.76280     11.41585         0.129309      0.414406      0.354524
O       0.01969     13.42429     11.47143        -0.111522      0.001616      0.208645
O       3.76318      5.79688      2.72885         1.523636     -0.274450      0.009316
O       3.85712      5.75556     15.78290        -0.831795     -0.422253      0.001278
O       0.00654      5.74077      2.86559        -0.316339     -0.234040     -0.188620
O      15.25203      5.82602     15.79720         1.299123     -0.217283     -0.012137
O       3.80329      5.72212      7.14250        -0.097319      0.315081      0.364793
O      15.30320      5.75545      7.09462         0.515614      0.173344      0.221558
O       3.83912      5.63430     11.49533        -0.607458      0.144414      0.126852
O       0.10019      5.69100     11.49709        -2.059035      0.259308      0.101218
O       3.87267      9.56733      2.72168         0.231697     -0.317116     -0.037668
O       3.90916      9.69252     15.92858        -0.677025     -0.564072     -0.242312
O       0.07217      9.58464      2.84801         0.211890      0.259332     -0.350766
O       0.01535      9.55519     15.68264        -0.073766     -0.265770      0.454182
O       3.88420      9.60483      7.06349         0.004645     -0.341801      0.211491
O       0.06067      9.57485      7.10593        -0.679245     -0.193995      0.183886
O       3.93004      9.54489     11.47682        -2.189366     -0.035370     -0.026932
O       0.04627      9.70543     11.47521         0.598113     -0.861204      0.540645
O       7.63937      2.02415      2.74421         0.603431     -0.674699      0.219115
O       7.65043      1.95593     15.84441         0.635714      0.087209     -0.365389
O       7.68730     13.38682      2.68640         0.006481      0.138375      0.226251
O       7.57470     13.34915     15.93093         1.382618      0.885167     -0.246289
O       7.61123      1.88321      7.14811        -0.131223      0.095195      0.169868
O       7.59665     13.39349      7.04481         0.206005     -0.258419     -0.188309
O       7.61556      1.91761     11.52547         1.105200     -0.428924     -0.005762
O       7.76445     13.53518     11.58092        -0.537120     -0.484498     -0.566939
O       7.67035      5.63828      2.74981        -0.679185      0.230317      0.134988
O       7.68022      5.73290     15.77216        -0.307834      0.405539      0.211344
O       7.66760      5.71063      7.18060         0.080593     -0.055852      0.102732
O       7.73522      5.87337     11.41354        -1.079476      0.218022     -0.118117
O       7.64353      9.73964      2.79625         0.813686      0.287730     -0.161270
O       7.72667      9.61088     15.84559        -0.338878     -0.133571      0.151912
O       7.64418      9.61914      6.93669         0.731479     -0.081891      0.361723
O       7.70355      9.40582     11.32885        -0.323571      0.336150      0.253888
O      11.47161      1.96896      2.67977        -0.278138     -0.498887      0.359816
O      11.48177      1.96692     15.92401         0.048620     -0.639140     -0.834082
O      11.53408     13.51643      2.74463        -1.030148     -0.526311     -0.149295
O      11.47102     13.45694     15.86010         0.602264      0.082640     -0.210043
O      11.43634      1.81812      7.13673         0.355837     -0.069246     -0.350827
O      11.49373     13.39522      7.12251         0.480552      0.261100     -0.308712
O      11.51679      2.06690     11.47739        -0.072105     -0.623909      0.227832
O      11.59272     13.18438     11.49187        -1.025705      0.978056     -0.106404
O      11.44715      5.77080      2.79827        -0.080888      0.411720      0.355942
O      11.53641      5.69084     15.84811         0.270197      0.805521     -0.156100
O      11.52546      5.59912      7.19234        -1.054846      1.266276     -0.473461
O      11.50440      5.68683     11.55078         0.978276     -0.357651     -0.407302
O      11.61504      9.73704      2.74923        -0.767018     -1.255577      0.065835
O      11.57705      9.60277     15.74296        -0.200403      0.097133      0.562722
O      11.55674      9.59350      6.94852        -0.926321     -0.043959      0.588787
O      11.56569      9.65022     11.18389        -0.479994      0.010221      1.050124
O       1.88105      3.83171      2.63767         0.190525     -0.992007      0.482015
O       1.89077      3.88605     15.92232         0.208031      0.247266     -0.343242
O       1.94883     15.28263      2.63621        -0.068909      1.110338      0.094117
O       1.85201      0.01875     15.79468         0.699339      0.229771      0.235363
O      13.39472      3.80303      2.74950        -0.129227      0.153221      0.509005
O      13.49637      3.85990     15.73829        -0.306375     -0.185025      0.336569
O      13.44069     15.32330      2.70588        -0.121039     -0.017264     -0.410121
O      13.42627     15.34498     15.76026        -0.407780     -0.624893      0.727781
O       1.86246      3.79945      7.10282        -0.169210      0.089232     -0.201875
O       1.83476      0.00068      7.04700         0.200237     -0.684489      0.267130
O      13.39528      3.84095      6.95794         0.223743     -0.850563      0.357018
O      13.42542     15.26901      7.14916        -0.406030      0.061574     -0.493685
O       1.77847      3.77365     11.38269         0.529096      0.300705      0.519118
O       1.84614     15.32667     11.49341         0.896634      0.496326     -0.009627
O      13.49670      3.72700     11.47871         0.328810      1.320187      0.100575
O      13.37063     15.28783     11.38966        -0.129160      0.912084      0.090511
O       1.91099      7.63001      2.70372         0.049093      0.509375      0.332068
O       1.89653      7.64960     15.74964         0.403097     -0.274297      0.420339
O      13.50203      7.70393      2.76756        -0.266088     -0.066515     -0.139106
O      13.39144      7.64230     15.74699        -0.113843     -0.012007      0.206732
O       1.87835      7.68026      7.12253         0.361560     -0.521646      0.193326
O      13.33568      7.69915      7.22847         0.547474     -0.844142     -0.142629
O       1.84954      7.65800     11.45694         0.646341      0.354163      0.154934
O      13.49032      7.60843     11.45959         0.320040      0.433332     -0.049176
O       1.98894     11.44904      2.51273         0.034772      1.351745      0.833837
O       1.87900     11.52265     15.63885        -0.068303      0.250970      0.688297
O      13.50787     11.49254      2.91939        -0.323560      0.563629     -0.895883
O      13.49436     11.49382     15.80271        -0.252675      0.217386     -0.248761
O       1.86670     11.49562      7.08470         0.634950      0.052656      0.061364
O      13.41503     11.47885      6.89992         0.151208      0.642395      0.542608
O       1.99367     11.55509     11.50407         0.217643     -0.488864      0.433684
O      13.54654     11.46833     11.50389         0.021640      0.172581      0.329535
O       5.70887      3.84596      2.81145        -0.173264      0.007546     -0.305461
O       5.79412      3.80214     15.68085        -0.447460      0.636565      0.412049
O       5.79373      0.01245      2.80878        -0.095597      0.400432     -0.264718
O       5.81371      0.02878     15.68720        -0.324937     -0.533023      0.623773
O       5.63668      3.79420      7.12295         0.320041     -0.440988      0.458289
O       5.68758     15.34177      7.09107         0.463462      0.233229     -0.142950
O       5.91033      3.85813     11.45032        -0.572552     -0.232583      0.574899
O       5.75317     15.35623     11.56416        -0.217986     -0.076844     -0.210558
O       5.89781      7.67689      2.68914        -0.324391     -0.556244      0.198572
O       5.69069      7.67873     15.74655         0.379712     -0.786311      0.140672
O       5.79397      7.65774      7.06066        -0.276454      0.332450      0.226413
O       5.69359      7.66682     11.43406        -0.159650     -0.752779      0.042643
O       5.64786     11.52803      2.55579         0.167922      0.446657      0.373931
O       5.84001     11.55879     15.85400        -0.747300     -0.830652      0.104994
O       5.66007     11.51749      6.94997         0.444365      0.009332      0.415442
O       5.74820     11.44665     11.47022         0.568957      0.245007     -0.200194
O       9.60206      3.82391      2.77040        -0.131581     -0.098340     -0.038088
O       9.62946      3.91687     15.64696        -0.312112     -1.441623      0.255872
O       9.59996      0.03957      2.71909        -0.327421     -0.323433      0.158540
O       9.51598     15.35228     15.93532         0.499316      0.387326     -0.852353
O       9.50476      3.81426      7.29591         0.344582     -0.358972     -0.600551
O       9.42748     15.23815      7.09188         0.768043      1.007212     -0.008524
O       9.49460      3.88685     11.44218         0.126003     -0.850041      0.244320
O       9.84079      0.00660     11.41442        -0.576384     -0.349273      0.129597
O       9.31866      7.76276      2.69373         1.323008     -0.935749      0.114073
O       9.62701      7.71449     15.72423         0.215207     -0.623984      0.987337
O       9.57750      7.64354      7.18332        -0.019952      0.577590     -0.637256
O       9.82386      7.65867     11.42302        -0.947794      0.749513     -0.591952
O       9.71334     11.51668      2.80029        -0.582336      1.184257      0.086427
O       9.58249     11.56435     15.91105         0.055226     -0.503988     -0.104489
O       9.60637     11.52337      6.94396        -0.340144     -0.893361      0.276577
O       9.52087     11.44419     11.42218         0.054966     -0.273912      0.027580
