  # total energy = -7879.59156335 
CRSYTAL
PRIMVEC
    15.2000000000000000    0.0000000000000000    0.0000000000000000
     0.0000000000000000   15.2000000000000000    0.0000000000000000
     0.0000000000000000    0.0000000000000000    17.000000000000000
PRESSURE
7.70294 7.80727 5.5193 0.128843 0.014472 0.029339
PRIMCOORD
320 1
Pb       3.77012      3.72723      4.13439         0.148589      0.364516      0.262394
Pb       3.91761      3.83527     16.94237        -0.525515      0.146220     -0.202521
Pb       3.68731      0.05691      4.26849         0.684518     -0.239282     -0.053290
Pb       3.76520     15.18336     16.97269         0.026283     -0.172819     -0.199256
Pb       0.02434      3.83978      4.24802        -0.148580      0.340386     -0.539930
Pb      15.17733      3.67558      0.08821        -0.502323      0.373257     -0.412290
Pb       0.01320      0.08518      4.30480         0.036483     -0.712491     -0.384192
Pb      15.06470     15.15013      0.02572         0.319395      0.084013     -0.007399
Pb       4.01104      3.75573      8.50699        -0.810330     -0.156345     -0.047089
Pb       3.77956     15.05738      8.70775         0.160540      0.161973     -0.892615
Pb       0.14512      3.78335      8.49439        -0.693522     -0.185196      0.104516
Pb      15.15859     15.03807      8.50297         0.210493      0.384403     -0.212335
Pb       3.71826      3.82822     12.71579         0.205254      0.040840      0.249774
Pb       3.59591      0.05869     12.80291         0.938669     -0.279244     -0.088787
Pb      15.13281      3.82235     12.66211        -0.065073      0.239043      0.170215
Pb      15.19157      0.15570     12.82753        -0.180301     -0.867725     -0.166889
Pb       3.79408      7.46369      4.18784         0.080581      0.405924      0.190405
Pb       3.83936      7.54846     16.97632        -0.347166     -0.104739     -0.105635
Pb      15.19267      7.62211      4.17469        -0.179090      0.191994     -0.012300
Pb      15.09552      7.55048     16.90268        -0.222012      0.508301      0.503178
Pb       3.86448      7.67422      8.42511        -0.393470     -0.125705     -0.238751
Pb       0.04642      7.51494      8.37912        -0.668460      0.396787      0.146321
Pb       3.72386      7.55608     12.66042        -0.021909      0.176713      0.762949
Pb      15.19703      7.59857     12.60398        -0.359361      0.027223      0.567581
Pb       3.67253     11.25019      4.24521         0.088185      0.215110     -0.042072
Pb       3.85520     11.30672      0.26261        -0.133802      0.512245     -1.291437
Pb       0.03144     11.39071      4.18953        -0.352407     -0.198107     -0.368404
Pb      15.19918     11.39936      0.08514        -0.168226     -0.438925     -0.140917
Pb       3.86416     11.34091      8.56451         0.155732      0.479020     -0.562761
Pb      15.17381     11.38955      8.42841         0.106959      0.101301      0.067787
Pb       3.62553     11.31001     12.88666         0.119756      0.344569     -0.263546
Pb      15.17509     11.31668     12.84719        -0.006461     -0.058730     -0.610011
Pb       7.46802      3.62722      4.21214         0.017520      0.408656     -0.246182
Pb       7.54192      3.72651     16.86619         0.082886      0.332933      0.612122
Pb       7.58639     15.08078      4.29207        -0.322207      0.617090     -0.287577
Pb       7.64894     15.12401     16.96379        -0.305030      0.040258      0.116871
Pb       7.59807      3.78924      8.55643        -0.006523     -0.488573     -0.263627
Pb       7.65457     15.15687      8.40408        -0.183087      0.207946      0.679830
Pb       7.59317      3.91167     12.78706        -0.329345     -0.705576     -0.052630
Pb       7.61008      0.02657     12.72866        -0.126827      0.103110      0.461252
Pb       7.70796      7.45310      4.27799        -0.229625     -0.117584     -0.924514
Pb       7.51316      7.72383     16.89440         0.808900     -0.534259      0.608384
Pb       7.57258      7.61618      8.47557         0.195532     -0.021201      0.170502
Pb       7.53628      7.66137     12.73819         0.080735     -0.260709     -0.011689
Pb       7.54648     11.21691      4.35339         0.609625      0.722969     -1.058720
Pb       7.72827     11.44015     16.87891        -0.216283     -0.239839      0.501487
Pb       7.62683     11.43549      8.55348        -0.312184      0.029629     -0.044754
Pb       7.52746     11.32595     12.68921         0.392026      0.458859      0.297918
Pb      11.27782      3.73754      4.29885         0.057624      0.169717     -0.440078
Pb      11.31182      3.64460      0.01560         0.444517      0.533825     -0.015061
Pb      11.37213     15.13900      4.26536        -0.068656     -0.165037      0.000354
Pb      11.39789     15.11697     16.99604         0.019455      0.182746      0.202786
Pb      11.43001      3.85616      8.51364         0.114015     -0.544904     -0.272834
Pb      11.42120      0.03059      8.24657        -0.133417     -0.221879      0.674687
Pb      11.32530      3.83745     12.77225        -0.006818     -0.206083     -0.191572
Pb      11.47640      0.02523     12.59012        -0.903739     -0.412483      0.817693
Pb      11.37275      7.63342      4.23029         0.313319     -0.248702     -0.328855
Pb      11.27211      7.50677     16.90729         0.493748      0.706757      0.222138
Pb      11.31598      7.52514      8.48397         0.224118      0.494144     -0.312170
Pb      11.37805      7.59495     12.68365         0.043728      0.471267     -0.110075
Pb      11.29319     11.18972      4.30144         0.536947      1.027600     -0.824861
Pb      11.36522     11.58604     16.90110         0.266390     -0.989225      0.384645
Pb      11.50521     11.42972      8.47991        -0.475347     -0.219315      0.388122
Pb      11.40416     11.53298     12.57535        -0.409175     -0.615018      0.537961
Ti       1.83453      1.93505      2.10271         0.886749      0.012225     -0.062103
Ti       1.87233      1.95573     14.98445         0.208405      0.332403      0.881530
Ti       1.87337     13.30775      2.25743        -0.539833     -0.570177      1.309797
Ti       1.85769     13.37828     15.05767         0.459310     -1.509628      0.084451
Ti      13.26693      1.84276      2.30445        -0.179961      0.743085     -0.240934
Ti      13.30797      1.92753     15.01822        -0.485569     -0.387313      0.401679
Ti      13.26072     13.29741      2.30794        -0.109801     -1.311131      0.756915
Ti      13.37172     13.26073     14.95030        -0.797822      0.243777     -0.005341
Ti       1.88217      1.85999      6.61642         0.295029     -0.302631      1.108856
Ti       1.89266     13.28088      6.41037         0.027560      0.214913      2.555493
Ti      13.37027      1.92054      6.33979        -0.764794     -0.458558      1.656012
Ti      13.27819     13.24752      6.43157         0.665208     -0.031873     -0.397131
Ti       1.87508      1.88336     10.76217         0.717114     -0.102889     -0.408073
Ti       1.85894     13.27527     10.76018        -0.325177     -0.593581      0.741596
Ti      13.28723      1.86020     10.74299        -0.232821      0.762422      0.846096
Ti      13.34321     13.31315     10.74890        -0.779861     -0.891864     -0.438786
Ti       1.87811      5.69282      2.14927        -0.189911     -0.154651      0.350082
Ti       1.76785      5.71581     15.06012         1.359026      0.146313     -0.584092
Ti      13.23089      5.70097      2.18842         0.435588     -0.110646      1.775238
Ti      13.20897      5.70575     14.91486         0.363575     -0.174005      0.462933
Ti       1.85846      5.67086      6.52001         0.680135      0.145638      0.388337
Ti      13.24741      5.66724      6.41685        -0.135216      0.814837      1.623945
Ti       1.81289      5.68531     10.68209         0.007728      0.049902      0.353775
Ti      13.16131      5.62548     10.69306         0.585385      0.901277      0.226898
Ti       1.96083      9.34317      2.05032        -2.001210      1.491587      2.317902
Ti       1.92135      9.51301     15.09825        -0.456178      0.184411      0.280475
Ti      13.27841      9.46866      2.17618         1.048714      0.692299     -0.485729
Ti      13.28816      9.51693     14.96325         0.171586     -0.429773      0.268614
Ti       1.87233      9.54029      6.46265         0.356351     -0.618532     -0.131828
Ti      13.28915      9.45179      6.46589        -0.141427     -0.177131      0.529595
Ti       1.81885      9.46218     10.59098         0.236292      0.559954      1.531099
Ti      13.26253      9.45479     10.66297        -0.167159      0.227060      1.997240
Ti       5.59021      1.85835      2.11668         2.297876     -0.227968      0.646009
Ti       5.63821      1.86444     14.93490         0.625198      0.558037     -0.374599
Ti       5.61267     13.25359      2.22871         1.253578      1.110303      0.060731
Ti       5.66012     13.33494     14.99321         0.097260     -0.573943      0.564754
Ti       5.65097      1.83648      6.54369         0.783274     -0.611222      0.459680
Ti       5.66922     13.30248      6.41017        -0.375953     -0.066008      0.745424
Ti       5.73560      1.85807     10.80864         0.081851     -0.448303      0.587850
Ti       5.61863     13.23557     10.97934         0.479237      0.527206     -0.154321
Ti       5.67600      5.70575      2.25831         1.409870     -0.395180      1.620472
Ti       5.69701      5.80179     15.05673        -0.825640     -1.026278     -0.487089
Ti       5.63567      5.69354      6.43794         0.376509     -0.119442      0.034953
Ti       5.64069      5.67617     10.67797         0.131790      0.999231      0.505078
Ti       5.73972      9.50405      2.22988         0.446729     -0.149821     -0.177294
Ti       5.69231      9.58450     14.99879        -0.267377     -0.489917      1.192554
Ti       5.76904      9.52695      6.39016        -2.026582      0.372777      0.528754
Ti       5.62146      9.47240     10.75989         0.220697      0.390813      0.151903
Ti       9.40933      1.87383      2.26231        -0.645327     -0.350457      0.305274
Ti       9.48275      1.89832     14.95754        -0.400896     -0.531148     -0.403072
Ti       9.45261     13.30743      2.30829         0.254972     -0.626930      0.409446
Ti       9.52148     13.35360     14.89699        -0.104831     -0.587371     -0.605552
Ti       9.48647      1.90463      6.45508        -0.610447     -0.642194     -0.087337
Ti       9.47689     13.20503      6.48711         0.195254      0.233314      0.495010
Ti       9.55524      1.92383     10.71012        -1.851918     -0.933890      0.446093
Ti       9.43595     13.35230     10.70209         0.489984     -0.272722      1.187926
Ti       9.52201      5.67107      2.21246        -1.197867     -0.516440     -0.359566
Ti       9.49544      5.64215     14.96061        -0.075739      0.686001      0.320022
Ti       9.40304      5.59815      6.49534         0.507989      0.937637      0.254323
Ti       9.38817      5.72007     10.69547         0.321125      0.198706      0.666552
Ti       9.46367      9.48408      2.05833         0.561373      0.465498      2.348515
Ti       9.54152      9.44976     14.79556         0.804533      1.031412      1.082861
Ti       9.47584      9.48158      6.48228         0.942560     -0.421389      0.116124
Ti       9.47508      9.48765     10.71083         0.485503      0.154054      0.043410
O       1.86981      2.03536      0.32873         0.104257     -0.309172      0.179978
O       1.79387      1.88994     13.20993         0.186324     -0.107738     -0.853031
O       1.84143     13.29360      0.54093         0.262798      0.410146     -0.948962
O       1.84540     13.42023     13.27925        -0.311274     -0.325963     -0.259624
O      13.31676      1.87295      0.50338        -0.137263     -0.243098     -0.160485
O      13.27439      1.87037     13.24316         0.043494      0.334388     -0.104846
O      13.14626     13.30220      0.52284         0.441526      0.501468     -0.405697
O      13.42849     13.28280     13.17709        -0.246803     -0.107768      0.037969
O       1.87778      1.85880      4.86218        -0.119548      0.185847     -1.062505
O       1.91468     13.35699      4.70075         0.034581     -0.082353     -1.935402
O      13.53388      1.92161      4.60965        -0.261607      0.014976     -0.957772
O      13.29856     13.14115      4.67398         0.089409      0.305753      0.556634
O       1.89645      1.79614      8.98789         0.071699      0.552498      0.125430
O       1.76470     13.29569      8.98553         0.542690     -0.025509      0.543774
O      13.20330      2.04462      9.05361        -0.081635     -0.254414     -1.426685
O      13.28853     13.28610      8.95906         0.166696     -0.037225     -0.588377
O       1.94749      5.71609      0.40180        -0.440652     -0.409448     -0.029944
O       1.95281      5.87751     13.27821        -0.534823     -0.686757     -0.513248
O      13.07597      5.78106      0.49136         0.526587     -0.358800     -1.037605
O      13.17464      5.66222     13.12231         0.091175     -0.013829      0.596569
O       1.86610      5.62616      4.77802         0.105682      0.202516     -0.989422
O      13.24130      5.83553      4.70720         0.273878     -0.438539     -1.069340
O       1.88739      5.55163      8.93690        -0.050691      0.415144     -0.406460
O      13.14398      5.59023      8.89501         0.195361     -0.000206      0.448079
O       1.82729      9.50477      0.34361         0.334094     -0.102046     -0.877306
O       2.01519      9.48969     13.31992        -0.419960     -0.093837     -0.421493
O      13.48415      9.45433      0.42331        -0.772455      0.048587     -0.353189
O      13.26424      9.48475     13.19272         0.358252      0.150826     -0.469597
O       1.92666      9.62062      4.68436        -0.211054     -0.711352     -0.199285
O      13.34242      9.50982      4.70437        -0.474649     -0.222899     -0.649523
O       1.87912      9.49849      8.86616         0.014075      0.032237     -1.038062
O      13.29455      9.46434      8.95939        -0.027888      0.045062     -1.636356
O       5.72495      1.99321      0.35547        -0.144149     -0.504244     -0.731373
O       5.69050      1.88137     13.16542        -0.227362      0.312315     -0.049872
O       5.69191     13.24452      0.42561        -0.415779      0.209364      0.450307
O       5.73868     13.28642     13.25181        -0.343933      0.079334     -0.420337
O       5.67729      1.82027      4.79871        -0.371316      0.040170     -0.439469
O       5.72079     13.37142      4.66109        -0.212932     -0.351299     -0.197419
O       5.74000      1.85830      9.03290        -0.144019      0.306208     -0.569327
O       5.64646     13.05358      9.23023        -0.159819      0.306003     -1.000163
O       5.71408      5.74124      0.54580         0.028431     -0.218497     -2.343210
O       5.65480      5.95049     13.31507        -0.061747     -0.713240     -0.829509
O       5.59928      5.74415      4.63749         0.331028     -0.080784      1.062315
O       5.73989      5.77340      8.90426        -0.489518     -0.477009      0.091021
O       5.73656      9.60187      0.42192         0.082796     -0.267157      0.655995
O       5.63688      9.36841     13.27425         0.023088      0.233196     -1.186408
O       5.73740      9.62774      4.60370        -0.154120     -0.514535      0.209500
O       5.66107      9.69655      8.96872        -0.054804     -0.526391      0.340396
O       9.27483      1.77558      0.47036         0.701422      0.437046      0.300650
O       9.49279      1.92693     13.19929         0.340440      0.425127     -0.177865
O       9.60318     13.39796      0.53415        -0.260530     -0.016000     -0.744950
O       9.61312     13.37848     13.14096        -0.479479     -0.503703      0.503817
O       9.27782      2.01468      4.67218         0.953227     -0.101491      0.423143
O       9.45855     13.14584      4.74532         0.110461      0.079961     -0.699578
O       9.42755      1.77732      8.95884         0.500766      0.012734     -0.641185
O       9.49988     13.40232      8.94640        -0.132634     -0.207668     -0.786851
O       9.47006      5.77209      0.43234         0.228186     -0.503474      0.011500
O       9.50446      5.57622     13.19220         0.017270      0.126450     -0.627111
O       9.38452      5.52864      4.72939         0.341229      0.351135      0.057639
O       9.34493      5.88406      8.94354         0.334211     -0.489373     -0.748013
O       9.48623      9.48298      0.35813        -0.022780     -0.086988     -0.946476
O       9.47486      9.52306     13.03406         0.139681     -0.005386      0.464678
O       9.61635      9.62704      4.65338        -0.921190     -0.799364      0.615734
O       9.46509      9.43501      8.92028        -0.243924     -0.070830      0.260766
O       3.83970      2.11939      2.40966        -2.634401     -0.421972      0.615174
O       3.73611      1.77005     15.18015         0.776600     -0.109128      0.568285
O       3.76999     13.11327      2.58226        -0.346725      0.283833     -0.058871
O       3.75542     13.31170     15.41027         0.692812      0.479075      0.057606
O       0.02487      1.89132      2.42580        -0.021204     -0.589694      0.616851
O       0.00083      1.97654     15.36390        -0.500216      0.039144      0.106238
O      15.17262     13.35207      2.70410         0.870246      0.539111     -0.317642
O      15.17379     13.27200     15.54368        -0.047038     -0.027614     -0.446638
O       3.82776      1.84320      6.91320        -0.685626     -0.010217      0.328917
O       3.70177     13.37114      6.86040         1.365390     -0.411157      0.129317
O      15.12094      1.81657      6.99647         0.836528      0.689549     -0.356526
O       0.04567     13.30423      6.84500        -1.294984     -0.190220      0.018872
O       3.83365      1.84199     11.10990        -1.374102      0.525018      0.193965
O       3.72686     13.23429     11.23175        -0.873558      0.669166     -0.161887
O      15.19465      1.87662     11.09653        -0.660871      0.507860      0.157716
O      15.13757     13.26746     11.11358         1.486345     -0.192225      0.089299
O       3.80208      5.59541      2.58903        -0.907022      0.072988      0.203040
O       3.76910      5.72130     15.43909         0.734678      0.473628      0.063416
O      15.17972      5.85815      2.60499         0.126091     -0.529644     -0.404118
O      15.12723      5.63068     15.38731        -0.404936     -0.446148     -0.218047
O       3.78691      5.67332      6.77849         0.588008      0.161644      0.499881
O      15.17872      5.64602      6.90513        -0.368544     -0.075579     -0.265370
O       3.69384      5.84804     11.05165         0.885908     -0.664936     -0.197376
O      15.11080      5.63125     11.06662         0.284466     -0.285506     -0.044816
O       3.80512      9.55193      2.57424         0.348755      0.272517     -0.381635
O       3.81965      9.46997     15.55085        -0.263619      0.238288     -0.529298
O      15.19738      9.17234      2.44156         1.201289      0.613757      0.509507
O      15.18495      9.60889     15.31819         0.334736     -0.348463     -0.049247
O       3.81089      9.57550      6.68548         0.242706     -0.291362      0.677968
O      15.16566      9.41534      6.77564         0.318704      0.152736      0.378823
O       3.73299      9.36237     11.00653         0.125795      0.152869     -0.130070
O      15.15366      9.53170     11.04944         0.107245      0.230847      0.306969
O       7.46525      1.65681      2.65073         1.148902      0.764007     -0.248238
O       7.59679      2.12010     15.25050        -0.048145     -0.813064     -0.089748
O       7.60787     13.51482      2.57973        -0.687093     -0.347863     -0.282151
O       7.57761     13.21308     15.47616         0.617698      0.363529     -0.936006
O       7.60229      1.79663      6.92007        -0.116759      0.610251     -0.143015
O       7.64886     13.31717      6.85827        -0.866249     -0.580362     -0.021595
O       7.59503      2.03671     11.22196         0.099959     -0.245740     -0.386949
O       7.56353     13.29185     11.24059         0.116853     -0.510306     -0.391234
O       7.61425      5.65797      2.73622        -0.296275      0.605262     -0.278027
O       7.63424      5.70383     15.29779        -0.732124     -0.135809      0.221724
O       7.57783      5.71775      6.91280        -0.950805     -0.263549     -0.411620
O       7.55637      5.70243     11.10071        -0.685201     -0.517857      0.188586
O       7.60534      9.38971      2.57068         0.106321      0.025813      0.144418
O       7.69179      9.47065     15.33336        -0.874300      0.532188     -0.540887
O       7.55649      9.60002      6.75294         0.224718     -0.040858      0.095084
O       7.61383      9.53037     11.09719        -1.566917      0.396597     -0.069022
O      11.38982      1.97347      2.69463        -0.490636     -0.219313     -0.258032
O      11.36633      1.81617     15.56202         0.379884     -0.045199     -0.946380
O      11.41182     13.29952      2.76008        -0.351808     -0.450397     -0.267245
O      11.41851     13.42360     15.31753         0.073682      0.188163      0.102151
O      11.43667      1.80273      6.70814        -0.150092      0.736043     -0.123120
O      11.38685     13.21492      6.84895         0.333354      0.226728     -0.098542
O      11.32570      1.95975     11.16104         1.890253     -0.816186     -0.087729
O      11.33595     13.30891     11.04173         0.761098      0.743487      0.104194
O      11.40143      5.55403      2.74017        -0.654208      0.048646     -0.255889
O      11.37505      5.65893     15.44766         0.029243      0.204650     -0.621594
O      11.31992      5.77897      6.82629        -0.007980     -0.483872     -0.042540
O      11.27851      5.85529     11.06617         0.847256     -0.753818     -0.249057
O      11.41419      9.57616      2.47319        -1.249680     -0.066260      0.356148
O      11.47078      9.43120     15.31436        -1.645931      0.111392     -0.092710
O      11.33606      9.40858      6.87876         0.875876      0.315361     -0.315284
O      11.36872      9.44474     11.04792         0.140601     -0.341346      0.000234
O       1.79529      3.81345      2.55839         0.033669      0.021126      0.357731
O       2.04220      3.82505     15.21448        -0.477506     -0.468818      0.297362
O       2.00761      0.09724      2.62122         0.021576     -0.599735     -0.362638
O       1.87251      0.00006     15.48515        -0.531593      0.760423     -0.087175
O      13.43285      3.71990      2.54440        -0.164045      1.384587      0.230344
O      13.21058      3.80113     15.41741        -0.008722     -0.346636     -0.108546
O      13.26781     15.15325      2.77586         0.190716      0.962879     -0.354484
O      13.45661     15.17927     15.29260        -0.513343      0.539328      0.338504
O       1.90471      3.78293      6.89088        -0.091024     -0.515525      0.239387
O       1.85750     15.19637      7.02013         0.057605     -0.207753     -0.561613
O      13.23594      3.78515      6.66551        -0.041526     -0.020800      0.292707
O      13.34321     15.15682      6.66909        -0.337443     -0.005030      0.276558
O       1.86046      3.77342     11.12495         0.232193      0.417853      0.131238
O       1.81958      0.00841     11.17957         0.272579     -0.545357     -0.274296
O      13.19681      3.79048     11.17151         0.040818     -0.120539     -0.140233
O      13.32940     15.17724     11.04499        -0.353099      1.018358      0.233303
O       2.06080      7.55229      2.57716        -0.004192     -0.359911      0.041012
O       1.80581      7.56996     15.42301         0.283462      0.932297      0.051584
O      13.14608      7.62522      2.61234        -0.226851     -1.229089      0.267395
O      13.32506      7.55101     15.33125        -0.089949     -0.026924     -0.287237
O       1.88671      7.59357      6.91681         0.353401     -0.293799     -0.233749
O      13.28771      7.58622      6.83625         0.003645     -0.473048      0.195340
O       1.69887      7.58438     10.99309         0.345193      0.049927     -0.147661
O      13.35327      7.53226     11.08975        -0.445591      0.409918     -0.292153
O       1.76754     11.32443      2.49490         0.226266      0.056676      0.079992
O       1.87438     11.46538     15.39387         0.278735     -0.635164     -0.080192
O      13.51169     11.37362      2.53891        -0.420868     -0.164918     -0.019279
O      13.20169     11.40821     15.36385         0.393137      0.486135     -0.176412
O       1.80588     11.36221      6.80169         0.178910      0.860017      0.145952
O      13.33371     11.35604      6.87843        -0.218905      0.072694      0.075891
O       1.89791     11.32541     11.13540        -0.112512      0.563372     -0.011564
O      13.15111     11.42679     11.05248         0.704632     -0.790084     -0.123576
O       5.73464      3.79042      2.56515         0.174885     -0.479277      0.187999
O       5.59559      3.76349     15.24670         0.097022      1.218480      0.369171
O       5.46569      0.01664      2.66645        -0.185812     -0.521699     -0.671018
O       5.83982      0.01173     15.27833        -0.413425     -0.119661      0.497574
O       5.71841      3.75860      6.86692         0.085890      0.681483     -0.013026
O       5.74443     15.06549      7.01290        -0.592685      1.148343     -0.155742
O       5.61649      3.86982     11.08335        -0.242447     -0.254887      0.079106
O       5.63659     15.17766     11.17455         0.273155      0.132180     -0.224440
O       5.64654      7.58899      2.58178        -0.068065      0.681535      0.217718
O       5.66714      7.64104     15.45926         0.370832     -0.011936      0.104068
O       5.68256      7.64424      6.90925         0.054968     -0.117439     -0.827384
O       5.77056      7.59355     11.09683        -0.275092      0.272062     -0.337979
O       5.88447     11.43796      2.55274        -0.399145     -0.834628      0.192138
O       5.65735     11.38187     15.25495         0.142963      0.641595      0.293893
O       5.67260     11.49821      6.91617         0.137755     -1.135209     -0.371765
O       5.50336     11.35819     11.35370         0.747051     -1.309374     -0.215521
O       9.34262      3.76279      2.58012         0.425409     -0.699430     -0.168130
O       9.59591      3.78985     15.24437         0.006085     -0.126096      0.734200
O       9.59208     15.18889      2.70732         0.105554      0.655432      0.145699
O       9.34046      0.00476     15.18028         0.085299      0.118267      0.815484
O       9.49146      3.75094      6.99781        -0.067093      0.466723     -0.262261
O       9.52481      0.01457      6.69584         0.150278     -0.828525      0.300483
O       9.58012      3.78032     10.87725        -0.385643      1.416508      0.435388
O       9.42171      0.01225     11.27826         0.366519      0.303426     -1.140597
O       9.47383      7.52576      2.48248         0.602011      1.074523      0.769576
O       9.53245      7.61805     15.17618         0.036177     -0.530438      0.060210
O       9.35140      7.63724      6.80736         0.058053     -0.940360     -0.270787
O       9.36374      7.58066     11.16822         0.319020      0.386814     -0.266642
O       9.39424     11.40025      2.55286         0.077258     -0.371080     -0.175448
O       9.62775     11.46064     15.35487        -0.545903     -0.671094     -0.569576
O       9.50155     11.29346      6.97342        -0.011535      1.546143     -0.277265
O       9.53767     11.43100     11.07767        -0.508137     -0.301754     -0.393325
