  # total energy = -7863.56908534 
CRSYTAL
PRIMVEC
    15.010000000000000    0.0000000000000000    0.0000000000000000
     0.0000000000000000   15.010000000000000    0.0000000000000000
     0.0000000000000000    0.0000000000000000    16.400000000000000
PRESSURE
15.7779 15.7653 6.13218 -0.121469 -0.008869 0.063847
PRIMCOORD
320 1
Pb       3.76928      3.63984      4.18792         0.004090      0.828018     -0.081160
Pb       3.62597      3.74791     16.37080         0.523177     -0.240443      0.508343
Pb       3.76018     14.96147      4.16197        -0.614730      0.273494     -0.021781
Pb       3.86347     14.96539      0.08197        -0.633330     -0.366226     -0.735359
Pb      14.92423      3.83781      4.16572         0.695278     -0.976464      0.016834
Pb      14.88908      3.61948      0.09481        -0.142806      0.158209     -0.488775
Pb      14.88815      0.03838      4.29766         0.435553     -0.527464     -0.498785
Pb       0.04777     14.95983      0.16300        -0.729655     -0.351252     -0.594843
Pb       3.46709      3.75151      8.27421         1.230462     -0.385715     -0.291700
Pb       3.69968      0.15631      8.21679        -0.576592     -0.484568     -0.025886
Pb      14.80089      3.78133      8.33225         0.354567     -0.179777     -0.392615
Pb      14.82646     14.99940      8.20143         1.176963      0.167421      0.073826
Pb       3.71530      3.67035     12.38468        -0.461014      0.192398     -0.210784
Pb       3.62391     14.96336     12.35524         0.316389      0.030390     -0.165834
Pb      14.90671      3.79483     12.39185        -0.021466      0.084007      0.007802
Pb      14.98551     14.97419     12.32945         0.073384      0.212451     -0.017464
Pb       3.87339      7.50955      4.17798         0.144479     -0.150526      0.875743
Pb       3.77956      7.55674      0.07275        -0.311364     -0.091970     -0.339936
Pb       0.15935      7.52261      4.19487        -0.466685      0.561983     -0.144519
Pb       0.00177      7.44351      0.05887         0.127358      0.011840      0.529862
Pb       3.72652      7.52786      8.28410         0.245070      0.033433     -0.056058
Pb       0.06071      7.54838      8.36152        -0.227205     -0.037984     -1.065189
Pb       3.61957      7.42367     12.32133         0.230145      0.311900     -0.506446
Pb      14.87987      7.46630     12.29799         0.696309     -0.205022     -0.059211
Pb       3.87728     11.05734      4.27624         0.057958      0.100792     -0.087142
Pb       3.77170     11.17426      0.10884         0.172753      0.250534     -0.505760
Pb       0.16525     11.11327      4.15771        -0.560554      0.480974      0.147616
Pb       0.09370     11.30660      0.15516        -0.721143     -0.260042     -0.245207
Pb       3.74633     11.28295      8.25945         0.289485     -0.064392     -0.443392
Pb       0.10737     11.27660      8.19633        -0.637720      0.123521     -0.071503
Pb       3.73127     11.20864     12.27254         0.068695     -0.075910      0.513628
Pb       0.01849     11.27905     12.30092         0.025803     -0.473727      0.300666
Pb       7.41449      3.88407      4.01972         0.190224     -0.789234      0.976898
Pb       7.45557      3.69038      0.05066         0.123729      0.269044     -0.170933
Pb       7.51805     14.88921      4.12099         0.365872      0.268231      0.062282
Pb       7.46730     14.89033      0.03871         0.047972     -0.239221     -0.457242
Pb       7.38633      3.74697      8.27481         0.093055     -0.450194     -0.932983
Pb       7.42504      0.17710      8.24865        -0.061623     -0.135414     -0.488055
Pb       7.29275      3.81319     12.40241         0.694058     -0.453182     -0.329979
Pb       7.43112     14.96635     12.25351         0.001475      0.241446      0.777922
Pb       7.63401      7.45521      4.10895        -0.616924     -0.061628      0.358021
Pb       7.51731      7.41579     16.33166         0.415571      0.458365     -0.126051
Pb       7.58367      7.37618      8.31858        -0.681602      0.424151     -0.470422
Pb       7.44310      7.61947     12.28929         0.390398     -0.369051      0.075873
Pb       7.65295     11.07316      4.19718        -0.517850      0.868285      0.097668
Pb       7.46121     11.26477     16.39364         0.534573     -0.249990      0.351101
Pb       7.64409     11.30451      8.16916        -0.579811     -0.020152     -0.621202
Pb       7.48258     11.36379     12.15101         0.009906     -0.727017      0.904707
Pb      11.14465      3.82878      4.16763        -0.384642     -0.539623     -0.252595
Pb      11.26106      3.76730      0.08253         0.272244     -0.162885     -0.203619
Pb      11.27492     14.91054      4.08663        -0.401748      0.461289      0.241915
Pb      11.29052     14.97211      0.06428         0.938597     -0.384776     -0.144272
Pb      11.20059      3.69718      8.37769        -0.253286      0.211986     -0.764766
Pb      11.18291      0.03136      8.25429        -0.059935      0.308199     -0.125609
Pb      11.10034      3.73481     12.33043         1.080939     -0.100851      0.745198
Pb      11.18856     14.96810     12.44997         0.316272      0.387168     -0.269531
Pb      11.41952      7.49103      4.18036        -0.148485      0.086330      0.095603
Pb      11.23608      7.42232      0.07558        -0.028384     -0.107419     -0.454307
Pb      11.25452      7.44938      8.29428         0.388089      0.020954     -0.951208
Pb      11.11656      7.43613     12.31548         0.007542      0.459790      0.109229
Pb      11.32110     11.10525      4.10783        -0.066561      0.662488      0.939175
Pb      11.26734     11.17541      0.02492         0.147830      0.813593     -0.686350
Pb      11.33731     11.38165      8.30323         0.029016     -0.594480     -0.690403
Pb      11.15043     11.24513     12.31303         0.614998     -0.134984      0.236337
Ti       1.87981      1.79134      2.05109        -0.269267      0.148673      0.375045
Ti       1.84712      1.81749     14.39148        -0.678948     -0.377096     -0.099254
Ti       1.99435     13.06430      2.07484        -1.597202      0.918684      0.364263
Ti       1.88330     13.08092     14.34013         0.534494     -0.357616      0.122622
Ti      13.15796      1.79830      2.21319        -1.059593      0.044881     -1.170389
Ti      13.10665      1.80092     14.33333         0.242163      0.291082      1.221467
Ti      13.16550     12.98884      2.25376         1.046905      1.207886     -1.503734
Ti      13.23863     13.10207     14.32454        -0.815137     -0.125420      0.484851
Ti       1.80599      1.86838      6.16143        -0.578861     -0.020925     -0.310142
Ti       1.85860     13.11293      6.09467        -0.647119      0.738509      0.292075
Ti      13.02402      1.91937      6.29322         0.260176      0.148952     -0.664754
Ti      13.06458     13.15424      6.27145         1.027337     -1.282394     -1.071194
Ti       1.72884      1.94546     10.40852         0.023552     -0.909718     -0.848351
Ti       1.84544     13.13347     10.22514        -0.234608      0.523898     -0.571860
Ti      13.04688      1.84210     10.31476        -0.237151      0.447787     -0.296316
Ti      13.10722     13.17166     10.36470         1.007763     -0.930006     -0.242601
Ti       1.95078      5.58203      2.11064         0.195536      0.037001     -0.450363
Ti       1.88421      5.60474     14.37889        -0.680205      0.162062     -0.634729
Ti      13.19393      5.56881      2.26500        -0.315950      0.075143     -1.994996
Ti      13.13578      5.64196     14.47434        -0.862692     -1.139855     -0.547826
Ti       1.88534      5.60314      6.13055        -0.172073      1.289238      0.237591
Ti      13.15784      5.60447      6.16371        -0.240824      1.632453      0.956424
Ti       1.79645      5.62948     10.18774         0.522684      0.058387      1.279834
Ti      13.04509      5.65274     10.30685         0.348769     -1.608159      0.430772
Ti       1.96813      9.32336      2.16260        -1.079409     -0.251428     -0.484176
Ti       1.77819      9.36516     14.41543         1.316438      0.210154     -0.709277
Ti      13.11250      9.34640      1.98813         1.208019     -0.859770      0.382559
Ti      13.14943      9.36419     14.24994        -0.726722      0.841439      0.520208
Ti       1.87359      9.39273      6.29865         1.279178     -1.464549     -0.443086
Ti      13.15697      9.38473      6.25827        -0.395223     -0.245773     -0.796589
Ti       1.91910      9.38271     10.34569         0.311050     -0.320690     -0.122348
Ti      13.14471      9.36953     10.27219         0.366368      1.318842     -0.057102
Ti       5.62411      1.83755      2.03425         0.327387      1.015456     -0.174011
Ti       5.61797      1.82682     14.39229         0.261547     -0.539464     -0.018767
Ti       5.63429     13.10955      2.14066         0.504807     -1.021438     -0.511085
Ti       5.58553     13.02075     14.34226         0.163723      1.168055     -0.016154
Ti       5.53072      1.85133      6.05188         0.895820      1.472658      0.652843
Ti       5.57655     13.15597      6.07972         0.429380     -1.396306      1.299960
Ti       5.49229      1.83658     10.34742         0.213966      1.183516     -0.640040
Ti       5.57251     13.15972     10.18574        -0.117451     -0.596435     -0.173805
Ti       5.61737      5.67760      2.08601         0.009154     -1.326938      0.180270
Ti       5.55516      5.64851     14.35391         1.415060     -0.268966     -0.249891
Ti       5.63179      5.64146      6.29166         0.215531     -0.784124     -1.019741
Ti       5.60518      5.54947     10.26782        -1.326492      1.235348     -0.158082
Ti       5.67502      9.34089      2.04791         0.933817      1.355542     -0.290708
Ti       5.60110      9.37311     14.30585        -0.142080      0.157137      0.257031
Ti       5.70590      9.39550      6.34858         0.092591     -0.691084     -0.667060
Ti       5.74757      9.38665     10.26034        -1.949031     -0.865773     -1.015253
Ti       9.44031      1.77775      1.96473        -0.738126      1.233356      1.775005
Ti       9.35841      1.79569     14.39763         0.468940      1.213459     -0.696228
Ti       9.40187     13.07749      2.07151        -1.090881     -0.423222     -0.237331
Ti       9.41979     13.16362     14.29541        -0.684582     -1.778608      0.790574
Ti       9.31837      1.93205      6.09304        -0.633079      1.514268     -0.429051
Ti       9.36267     13.19589      6.19804        -0.468960     -0.496044     -0.959303
Ti       9.29837      1.91860     10.30639        -0.865654     -1.200773      0.212061
Ti       9.39179     13.14718     10.23772        -0.591067      0.973587     -0.268306
Ti       9.41163      5.62462      2.05583         0.319372     -0.311058     -0.100231
Ti       9.35983      5.59862     14.25871        -0.397120      0.398392      0.735012
Ti       9.38431      5.67388      6.26434        -0.388187     -1.497535     -0.637756
Ti       9.31475      5.56812     10.28178        -0.611868      0.285051     -0.263436
Ti       9.45627      9.37385      2.11759        -1.229640     -0.269704     -1.042946
Ti       9.38412      9.46247     14.35069        -0.067114     -1.315045     -0.530584
Ti       9.49360      9.37253      6.11985        -0.892745      0.428205      0.889412
Ti       9.48549      9.38118     10.12234        -0.786081     -0.521063      0.472463
O       1.85395      1.80643      0.15090         0.026451      0.389118      0.750819
O       1.82815      1.91991     12.46311        -0.211366     -0.770883      1.176984
O       1.95705     13.17785      0.18751        -0.713898     -0.798365      0.987087
O       1.97505     13.05505     12.47024        -0.022906      0.119947      0.093126
O      13.10862      1.83849      0.23606         0.274688      0.004736      0.986664
O      13.15555      1.77880     12.53308        -0.559930     -0.079050     -0.972634
O      13.21050     13.12357      0.23347         0.009284     -0.363714      0.634218
O      13.15222     13.12070     12.41243         0.022829      0.230064      0.756415
O       1.96560      1.93618      4.29030        -0.560998     -0.567810      0.117181
O       1.81808     13.11934      4.25697         0.546737      0.324250     -0.102239
O      13.00861      1.83137      4.33767         0.364779      0.350958      0.502978
O      13.14833     13.13955      4.30290        -0.402216     -0.208881     -0.045482
O       1.95689      1.90475      8.54862        -0.777567      0.202340     -0.548892
O       1.68126     13.07046      8.36792         0.262868     -0.018698      0.713914
O      13.14604      1.91361      8.38593        -0.336539     -0.417664     -0.245843
O      13.16441     13.20920      8.43923        -0.249686     -0.091872     -0.120603
O       1.93127      5.62262      0.21431         0.301041     -0.125328     -0.039547
O       1.71654      5.63910     12.46488         0.629755      0.382690      1.340069
O      12.98321      5.52842      0.21886         1.020024      0.465830     -0.468674
O      13.11730      5.51218     12.39884        -0.383594      0.694460      1.218855
O       1.85501      5.75337      4.26851        -0.450137     -0.468815     -0.073838
O      13.25590      5.66328      4.26177        -0.182472     -0.464933      0.354108
O       1.89966      5.72016      8.39262        -0.487115     -0.752129     -0.524101
O      12.95775      5.54653      8.46783         0.739884      0.138828     -0.478426
O       1.89960      9.35660      0.27199        -0.283174      0.020228     -0.103445
O       1.87468      9.20610     12.49676        -0.018314      0.611710      0.429990
O      13.15796      9.23581      0.14667        -0.322725      0.499591      0.439887
O      13.08983      9.38122     12.40870         0.253148     -0.020730      0.374687
O       1.92759      9.28462      4.30591        -0.040069      0.146652      0.332225
O      13.07977      9.39851      4.32906         0.031736     -0.155788      0.864363
O       1.80973      9.42299      8.47129         0.200368      0.022392     -0.580735
O      13.16308      9.36672      8.44698        -0.234368      0.026428     -0.382855
O       5.54872      1.87039      0.08888         0.389205      0.078773      1.015741
O       5.58271      1.87907     12.49506         0.242199     -0.233883      0.516150
O       5.67340     13.04200      0.27267        -0.143162      0.457275     -0.344456
O       5.59170     13.09820     12.49087        -0.122548     -0.303307     -0.091767
O       5.48048      1.81676      4.15683         0.074282     -0.085861      0.764457
O       5.54925     12.97050      4.23847        -0.246289      0.931801      0.628427
O       5.32921      1.84896      8.47214         0.970074     -0.026410      0.474046
O       5.78660     13.14970      8.40226        -0.646347     -0.090733      0.032847
O       5.54565      5.57441      0.20707         0.360805      0.214943     -0.128928
O       5.61473      5.56952     12.48112        -0.213400      0.396267      0.245801
O       5.78055      5.65107      4.27111        -0.458626      0.193966      0.780504
O       5.72736      5.60033      8.41292        -0.913160      0.056620     -0.288211
O       5.60532      9.33623      0.17818         0.088740     -0.070476      0.585653
O       5.60782      9.33876     12.42914         0.297151      0.145477      0.418077
O       5.54856      9.38826      4.40905         0.215442      0.027167     -0.669326
O       5.59097      9.34678      8.33532         0.601857      0.297006      1.274342
O       9.51298      1.76918      0.17925        -0.809722     -0.064506     -0.871078
O       9.37599      1.78234     12.49090         0.140455     -0.072477      0.530397
O       9.40436     12.97268      0.16027        -0.101139      0.635373      1.128174
O       9.37413     13.19602     12.40535        -0.077437     -0.450620      0.269966
O       9.45245      1.98971      4.26624        -0.194616     -0.071235      0.107830
O       9.37225     13.15620      4.34242        -0.113958      0.014401      0.152768
O       9.19291      2.00434      8.51586         0.395622     -0.921048     -0.757760
O       9.35054     13.13920      8.32887        -0.008576      0.419411      1.164804
O       9.46130      5.71350      0.18939        -0.639454     -0.511711      0.316358
O       9.32884      5.54330     12.39315         0.235637      0.408672      0.655677
O       9.32012      5.66977      4.28835         0.213430     -0.370729      0.353312
O       9.23390      5.55416      8.36161         0.577879      0.354149      1.312856
O       9.50434      9.49390      0.25663        -0.195826     -0.504652     -0.073003
O       9.41739      9.38828     12.44963        -0.348450      0.091972      0.309343
O       9.52315      9.39290      4.26822        -0.365959     -0.608980     -0.283837
O       9.44314      9.37176      8.30287        -0.100004      0.032022      1.111771
O       3.67808      1.34803      2.16840         0.534947      0.756099      0.242940
O       3.74476      2.08843     14.42893        -0.133426      0.084023      0.498813
O       3.74229     13.65554      2.20888        -0.127981     -0.948836      0.332755
O       3.71862     12.74441     14.61639         0.816405     -0.083589     -0.152877
O      14.94908      2.19486      2.34023         0.942460      0.219225     -0.063352
O      14.99957      1.51659     14.60694         0.229058      0.263409     -0.262924
O       0.03328     12.60460      2.29861        -0.789375      0.697964     -0.265136
O       0.08087     13.50868     14.40324        -1.431931     -0.430476      0.392093
O       3.62133      1.77157      6.42259         0.982376     -0.201557     -0.235738
O       3.65731     13.19660      6.48083         1.040468     -0.051113     -0.313123
O      14.97545      2.13537      6.50454        -0.531988     -0.482640     -0.634149
O      14.94613     12.98681      6.25620         0.032577      0.095755      0.555018
O       3.61908      1.59337     10.54556         0.796295     -0.204085      0.453197
O       3.71452     13.41245     10.27530         0.320758      0.091493      0.508304
O      14.81568      2.23779     10.52046         2.760777     -0.287892     -0.180400
O       0.01820     12.77438     10.60878        -0.591441      0.386165     -0.915680
O       3.79836      5.99067      2.40511        -0.352661     -0.058380     -0.589957
O       3.78819      5.20949     14.50185        -1.888807      0.295111      0.050233
O       0.10463      5.23040      2.19970        -1.182465     -0.035884      0.294164
O      14.97763      5.86086     14.57704         0.117947      0.573185      0.072743
O       3.70079      5.78228      6.25490         1.012816      0.207189      0.464260
O      14.99662      5.50052      6.48785        -0.536423     -0.083753     -0.287092
O       3.65940      5.97796     10.37335         0.643061     -0.426836      0.312851
O      14.92569      5.22098     10.46240         0.063019      0.922610     -0.563007
O       3.80550      9.07682      2.23160        -0.352883     -0.228131      0.371690
O       3.72858      9.74811     14.63187         0.083673     -0.640057     -0.418832
O      14.92416      9.57651      2.38472         0.864001      0.149430     -0.580870
O      14.97718      8.96227     14.60803        -0.044241     -0.012157     -0.419357
O       3.78270      9.33868      6.47761        -1.228969     -0.441882     -0.174635
O       0.01176      9.43609      6.40492        -0.693942      0.387340      0.066360
O       3.81020      9.02059     10.38924        -0.691729     -0.014933      0.326459
O       0.01696      9.60054     10.50852        -0.664709      0.211094     -0.016926
O       7.47646      2.25351      2.18699        -0.173692     -0.682467     -0.292151
O       7.57577      1.38767     14.61497        -1.295956      0.918804     -0.066057
O       7.44126     12.72298      2.38607         1.181830      0.891650     -0.267569
O       7.50445     13.41148     14.53551         0.325906     -0.524919     -0.021533
O       7.38099      1.97675      6.42738        -0.598710     -0.165344     -0.223532
O       7.47560     12.98694      6.37257        -0.394120      0.145424     -0.221007
O       7.37171      2.31687     10.42978        -0.041814     -0.940930      0.253465
O       7.45367     12.83383     10.45090         0.977067      0.074597     -0.200564
O       7.53273      5.33104      2.32335         0.047974      0.223487     -1.190231
O       7.45267      5.96012     14.45691         0.157270     -0.498238      0.414108
O       7.49153      5.39570      6.44623        -0.091543      0.374797     -0.455443
O       7.43257      5.33839     10.40831         0.758440     -0.462513      0.441786
O       7.52012      9.73628      2.34718        -0.028011     -0.803588     -0.389505
O       7.48079      9.13894     14.63893        -0.474174     -0.213019     -0.345906
O       7.55905      9.52209      6.26959        -0.133562      0.102067      0.450701
O       7.56605      9.57364     10.33494         0.226584      0.706705      0.503842
O      11.24083      1.46916      2.22411         0.443041     -0.338718      0.233432
O      11.26270      2.08611     14.56591        -0.524275     -0.154570     -0.171457
O      11.17128     13.38317      2.29635         1.426139      0.061122     -0.120099
O      11.32319     12.79221     14.45395        -0.808656      0.016444      0.023341
O      11.15933      1.75727      6.49590         0.889730     -0.205465      0.197260
O      11.20225     13.19213      6.44262         0.488695      0.874862      0.080883
O      11.21562      1.51435     10.21354        -1.362272     -0.206833      0.988125
O      11.27479     13.45384     10.48744        -1.478865      0.298237     -0.456444
O      11.33107      5.85190      2.25567        -1.313987      0.317559      0.548849
O      11.17249      5.37255     14.58453         0.771506      0.123743     -0.541403
O      11.23616      5.71390      6.38179         0.299761      0.311980     -0.104547
O      11.15749      5.85690     10.33240         0.221959     -0.066730      0.640600
O      11.25458      9.02891      2.36329         0.560213     -0.163730     -0.403293
O      11.25062      9.76572     14.38147         0.720561     -0.378339      0.745205
O      11.24556      9.12090      6.40128         1.605870      0.225750      0.153967
O      11.27383      9.11995     10.40124        -0.406055     -0.505132      0.251331
O       2.33471      3.71832      2.29594        -0.720078     -0.181526     -0.517607
O       1.47252      3.75185     14.53912         0.932759     -0.418061      0.357513
O       1.29040     14.98437      2.22074         1.301596     -0.136890      0.436371
O       2.15795     14.89807     14.61567         0.362191      1.858356     -0.669559
O      12.71461      3.70065      2.35758         0.922131     -0.168064     -0.036598
O      13.35575      3.72502     14.55092         0.047199      0.254022      0.081392
O      13.46503     14.89502      2.31889        -0.425420      0.783059      0.104725
O      12.79341     14.93385     14.58968         0.213066      0.339418     -0.316533
O       2.01074      3.80821      6.31688        -0.232936     -1.154406      0.322253
O       1.61427     14.99896      6.39497         0.286560      0.443830     -0.168489
O      12.93146      3.80705      6.45454         0.075724     -0.998260     -0.306698
O      13.21430      0.01458      6.33517        -0.043564      0.312024      0.491035
O       2.08434      3.75394     10.56590         0.097570      0.583547     -0.534002
O       1.52783     14.96834     10.47074         0.023206      0.350191      0.118493
O      12.72911      3.64793     10.44553        -0.431363      1.573089      0.268080
O      13.45512      0.01967     10.40214         0.020129     -1.075046      0.306398
O       1.54213      7.50089      2.22220         0.249694     -0.478094      0.131191
O       2.21729      7.52508     14.56991        -0.192160     -1.340335      0.326095
O      13.37851      7.41521      2.26311         0.246759      0.598413      0.068306
O      12.72877      7.52642     14.40141         0.392510     -0.787047      0.289282
O       1.68573      7.53769      6.48942         0.283073     -0.557946     -0.214372
O      13.20414      7.49890      6.39882         0.166557     -0.523877      0.187482
O       1.58383      7.50329     10.33892        -0.618613     -0.354372      0.692360
O      13.32882      7.47826     10.38847         0.136641      0.173169      0.386309
O       2.15719     11.21349      2.34215         0.299006      0.278624     -0.142233
O       1.42779     11.20706     14.57473         0.545777      0.122746     -0.043739
O      12.69745     11.18120      2.20962         0.330016     -0.077169     -0.166311
O      13.55840     11.25757     14.53305        -0.366407     -0.587837      0.063446
O       1.91176     11.22795      6.36427        -0.013453      0.665564      0.176365
O      13.00758     11.26976      6.48639        -0.261430     -0.503408      0.039045
O       2.24311     11.21399     10.48744        -0.642968      0.553351     -0.089271
O      12.69706     11.28758     10.44996         0.984282     -0.469335     -0.247604
O       5.28265      3.78840      2.29068         0.189583     -1.037083     -0.341802
O       5.98688      3.70047     14.56496        -0.342333     -0.211148     -0.129489
O       6.00466      0.00642      2.16714        -0.266350      0.036728      0.319493
O       5.36095     14.88925     14.60772         0.033556      1.092169     -0.248786
O       5.39527      3.69394      6.41351        -0.126185      0.055106     -0.285923
O       5.51950     14.98943      6.37381         0.538387      0.035689     -0.142410
O       5.17720      3.78693     10.58410         0.397995     -0.919133     -0.614854
O       5.88460     15.00904     10.48587        -0.250072     -0.043842     -0.196782
O       5.98761      7.51244      2.21287        -0.026952      0.152246      0.257046
O       5.24626      7.47792     14.49716         0.194736      0.495339      0.228249
O       5.78871      7.43776      6.39427        -0.092213      1.175514      0.186429
O       5.96843      7.46036     10.34987        -0.260955      0.628076      0.588442
O       5.28798     11.26367      2.20456        -0.444509     -0.763046      0.426899
O       5.95061     11.22296     14.65564        -0.472072     -0.372299     -0.775429
O       5.44410     11.25776      6.45254         0.307864      0.911726     -0.187000
O       5.21406     11.21437     10.48944         1.282865      0.480771     -0.498490
O       9.76389      3.67715      2.11835        -0.481749      0.793440      0.449821
O       9.04563      3.73145     14.50290         0.026335     -0.443091      0.274713
O       9.03753     14.98074      2.41151         0.104849     -0.473869     -0.718916
O       9.67829     14.92629     14.57858         0.498283      0.576379      0.031417
O       9.46103      3.73599      6.53704         0.091059      0.482856     -0.678561
O       9.08066      0.13057      6.20934         0.583748     -2.604761      0.955134
O       9.60944      3.70370     10.59314         0.114343      0.852889     -0.515290
O       8.91955      0.01612     10.48049         0.736682     -0.649474     -0.854920
O       9.04709      7.47552      2.19027         0.395728      0.535021      0.091322
O       9.54093      7.52308     14.52885         0.537761     -0.195879      0.007413
O       9.24265      7.51431      6.42662        -0.340008     -0.683511     -0.081398
O       9.11621      7.44284     10.51983         0.123558      0.825232     -0.535128
O       9.69840     11.22085      2.40433        -0.188238      0.565787     -0.443126
O       9.08183     11.23430     14.56181        -0.068808      1.262729     -0.338487
O       9.61789     11.21533      6.35401        -0.707417      1.070875      0.187598
O       9.69659     11.27876     10.37035        -0.709389     -0.067425     -0.041308
