  # total energy = -7880.99775947 
CRSYTAL
PRIMVEC
    15.3600000000000000    0.0000000000000000    0.0000000000000000
     0.0000000000000000   15.3600000000000000    0.0000000000000000
     0.0000000000000000    0.0000000000000000    17.440000000000000
PRESSURE
0.638447 0.414113 -3.13901 -0.083992 -0.351845 -0.062224
PRIMCOORD
320 1
Pb       3.94021      3.79277      4.37908        -0.221234      0.315135      0.026068
Pb       3.87905      3.81366      0.02917        -0.210771     -0.314648     -0.546707
Pb       3.77577      0.03410      4.34655         0.160671     -0.390953      0.397436
Pb       3.80404     15.28538     17.34787        -0.010981      0.295188     -0.437271
Pb       0.08204      3.81437      4.35181        -0.306106     -0.023994     -0.010746
Pb       0.04348      3.84399      0.00825        -0.030429      0.260585     -0.479973
Pb       0.09206      0.03707      4.37521        -0.614446     -0.392915     -0.009567
Pb      15.24368      0.08806     17.36051         0.236747     -0.757255      0.177845
Pb       3.74980      3.82720      8.67785        -0.147014      0.099764     -0.291155
Pb       3.74981     15.29605      8.66829         0.213717      0.039435     -0.269833
Pb      15.10963      3.95483      8.65435         1.203745     -0.535652      0.026501
Pb      15.24749     15.27748      8.74135        -0.001776      0.694098     -0.802100
Pb       3.97529      3.64687     13.04153        -0.543468      0.584551     -0.097267
Pb       3.79933      0.00714     12.94347         0.323821     -0.343914      0.422574
Pb       0.03063      3.77129     13.01446        -0.263637      0.488139      0.323505
Pb      15.27282     15.20079     13.04398        -0.030326      0.124811     -0.262272
Pb       3.83970      7.67964      4.31619        -0.141952     -0.007460     -0.242484
Pb       3.80667      7.65497      0.03597        -0.408372     -0.187328     -0.427565
Pb       0.12112      7.73874      4.28216        -0.548123     -0.054694      0.103201
Pb       0.02054      7.70136      0.05527         0.174929     -0.427680     -0.156128
Pb       3.75066      7.68692      8.63240         0.062841     -0.248211     -0.007848
Pb      15.24878      7.64292      8.64609         0.214296     -0.043568      0.186026
Pb       3.90040      7.57528     13.07600        -0.216355     -0.006305     -0.424016
Pb      15.33384      7.66818     13.06029         0.235229     -0.255848      0.636549
Pb       3.81372     11.52486      4.31802        -0.122096      0.196080     -0.213888
Pb       3.88627     11.57290     17.42156        -0.357420      0.098077     -0.331048
Pb       0.09905     11.55764      4.29700        -0.161840     -0.070897     -0.508239
Pb      15.24161     11.48203     17.40355         0.205599      0.284358      0.218248
Pb       3.85889     11.45890      8.66810         0.250966      0.459355     -0.066044
Pb       0.02796     11.48744      8.72442        -0.623714     -0.029201     -0.133483
Pb       3.90779     11.37541     13.02354        -0.021168      0.596085     -0.313890
Pb       0.15362     11.46571     13.01407        -0.042059      0.655751      0.385122
Pb       7.64973      3.80523      4.19289         0.596733     -0.500958      0.919046
Pb       7.71056      3.80552      0.06052        -0.250493     -0.303911     -0.400358
Pb       7.64317     15.31312      4.41195         0.374766      0.249600     -0.268882
Pb       7.50968      0.00849     17.35930         0.516909     -0.060562     -0.091544
Pb       7.48940      3.92068      8.67918         0.549831     -0.613221     -0.020838
Pb       7.66760      0.02874      8.77600        -0.016058      0.041485     -0.746747
Pb       7.82735      3.88341     13.00976        -0.655793      0.030058      0.341987
Pb       7.70320      0.08266     12.95293         0.155915     -0.466449      0.644492
Pb       7.72301      7.59292      4.32619         0.029983      0.323973     -0.018847
Pb       7.57566      7.73347      0.02879         0.491169     -0.142634     -0.524516
Pb       7.73556      7.59712      8.72747         0.267124      1.046211      0.192160
Pb       7.72907      7.71531     13.10821        -0.581092     -0.172080     -0.456271
Pb       7.63942     11.41610      4.35298        -0.047171      0.358208     -0.135879
Pb       7.63249     11.62829     17.26645        -0.238815     -0.407338      0.513009
Pb       7.70993     11.57714      8.69933        -0.041540     -0.280831     -0.191273
Pb       7.76506     11.60861     12.93748        -0.407929     -0.661342      0.500719
Pb      11.48095      3.74287      4.28953         0.330909     -0.039890     -0.319470
Pb      11.65510      3.87686      0.16283        -0.321022     -0.030639     -0.722001
Pb      11.65096     15.30516      4.37623        -0.360130      0.206774     -0.059365
Pb      11.23963     15.26391      0.03588         0.545960      0.217508     -0.225423
Pb      11.49773      3.86161      8.61821        -0.085515     -0.642261      0.913829
Pb      11.44291      0.06390      8.74120         0.335629     -0.107698     -0.045948
Pb      11.50070      3.73930     13.00011         0.130533     -0.036364      0.468104
Pb      11.44925     15.28435     13.11617         0.117790      0.377411     -0.661012
Pb      11.57721      7.50980      4.36135         0.092645      0.597516     -0.526645
Pb      11.42932      7.73369     17.42770        -0.170224     -0.168663     -0.473618
Pb      11.62307      7.71018      8.65109        -0.980915      0.009590      0.224344
Pb      11.36055      7.55092     13.15955        -0.113744      0.539460      0.327933
Pb      11.49223     11.46261      4.25673         0.340761      0.079341     -0.022021
Pb      11.40974     11.47723     17.35588         0.012261     -0.225392     -0.270201
Pb      11.44438     11.41249      8.67334         0.051859      0.159494     -0.197492
Pb      11.59005     11.49613     13.03815        -0.753357      0.163319      0.378918
Ti       1.93285      1.86119      2.33672        -0.251570      0.949880     -1.198314
Ti       1.85801      1.92419     15.33694         1.309396     -0.028173      0.127708
Ti       1.94682     13.49564      2.28648        -0.582509     -0.870576     -0.949854
Ti       1.82886     13.46169     15.36039         1.087792     -0.136806     -0.485707
Ti      13.50288      1.84416      2.24768        -0.817792      0.074676      1.084951
Ti      13.35538      1.80116     15.49776        -0.940948      1.282496     -1.711805
Ti      13.41095     13.40836      2.30934         0.697082      0.238313     -0.611414
Ti      13.43977     13.39684     15.33261        -0.418608     -0.725166      0.488655
Ti       1.87027      1.92983      6.66346        -0.458678      0.028432      0.766376
Ti       1.86751     13.37183      6.71737         0.919449      1.088981     -1.295327
Ti      13.37404      1.91369      6.65105         1.105370     -0.503765     -1.172494
Ti      13.39024     13.39291      6.63011         0.350185      0.710974      0.262888
Ti       1.84948      1.95895     10.94632         0.787884      0.436253     -1.813329
Ti       1.94389     13.56486     10.97279         0.310766     -1.541787      0.879979
Ti      13.41486      1.93106     11.06258        -0.904380     -0.749198     -0.409575
Ti      13.41122     13.35923     10.99449        -0.468016      2.262027      1.164548
Ti       1.88897      5.66531      2.42583         0.493826      1.562622     -0.831159
Ti       1.90876      5.77149     15.42499        -0.371315     -0.399646     -0.491647
Ti      13.45798      5.68462      2.26865        -0.149807      0.581964      1.118859
Ti      13.36926      5.73024     15.37912         0.258448     -0.262250     -0.174266
Ti       1.90355      5.78399      6.55208        -0.317998     -1.557395     -0.770244
Ti      13.37437      5.82788      6.62902         0.392018     -1.021133     -1.331040
Ti       1.85417      5.75129     11.02429         1.009798      0.095348     -0.282358
Ti      13.43298      5.86477     11.10135        -0.240924     -0.845735      0.022461
Ti       1.94598      9.59986      2.23928        -0.463182     -0.182218      0.399287
Ti       1.84374      9.63428     15.36661         0.530189     -0.323671      1.366293
Ti      13.37528      9.54818      2.29942         0.488027     -0.371721      0.578237
Ti      13.40414      9.56020     15.39334        -0.775610     -0.709039     -0.055565
Ti       1.81498      9.59113      6.74660         0.520223      0.035904     -1.759540
Ti      13.40628      9.64737      6.58139        -0.613988     -0.241108     -1.270373
Ti       1.75810      9.57249     10.99951         1.456890     -0.200199     -0.652543
Ti      13.30387      9.65321     11.11479         0.438309     -0.758845     -0.300076
Ti       5.73422      1.81735      2.35473         0.544325      0.558913     -0.663008
Ti       5.81122      1.93163     15.33595        -0.787140     -0.323970     -1.137889
Ti       5.75107     13.43554      2.27166        -0.684652     -0.255917     -0.778781
Ti       5.66548     13.41963     15.29179         0.019581      0.142904     -1.262241
Ti       5.71775      1.95529      6.72719         0.024045     -0.306392     -1.513829
Ti       5.85390     13.43665      6.64261        -0.251441      0.115225      0.570026
Ti       5.82510      1.94546     11.06911        -0.538130     -0.552127     -0.440047
Ti       5.82863     13.41261     11.02362        -0.998454     -0.284511     -0.390662
Ti       5.82917      5.74583      2.31924        -1.303263      0.095206     -0.043136
Ti       5.72221      5.70835     15.38370         0.516851      0.204176     -0.620800
Ti       5.77293      5.90448      6.64191        -1.277178     -1.199028     -1.367573
Ti       5.72864      5.75625     10.99626        -0.125718      0.008584      0.068982
Ti       5.77643      9.57635      2.31973        -0.755396      0.826608     -0.090291
Ti       5.63450      9.55338     15.35044         0.357475     -0.006980     -1.530387
Ti       5.76757      9.63063      6.67070         0.071922      0.623346     -0.452175
Ti       5.59616      9.53074     10.96188         1.663770      0.341467      0.483806
Ti       9.64950      1.79277      2.40138        -0.212623      0.170767     -0.870023
Ti       9.59562      1.95074     15.40677        -0.452953     -1.576888     -0.122350
Ti       9.59078     13.37393      2.27385        -0.726130      0.797311     -0.499510
Ti       9.53583     13.44050     15.38557         0.071412      0.218837     -0.996843
Ti       9.58614      1.93638      6.70903        -0.920794     -0.364285     -0.251330
Ti       9.76538     13.40539      6.64048        -1.863581      0.237761      1.223295
Ti       9.62272      1.91883     10.98071         0.486297     -0.196587     -0.933249
Ti       9.63183     13.39810     10.94619         0.052714      0.354863      1.544355
Ti       9.64125      5.76670      2.30023         0.007599     -0.305403     -1.484364
Ti       9.49527      5.63816     15.45704         0.684281      1.288415     -0.631385
Ti       9.60381      5.75197      6.67111         0.150257      0.089570     -0.387458
Ti       9.60672      5.81123     11.01023        -0.991753     -0.603916      1.142629
Ti       9.55477      9.57487      2.32909         0.400461     -0.688514     -0.821721
Ti       9.41805      9.54627     15.37179         1.703801     -0.058701     -0.871360
Ti       9.61833      9.57284      6.47265        -0.679136      0.224477      0.595234
Ti       9.53780      9.56834     11.06126        -1.257794     -0.381338     -0.202010
O       1.96146      1.90563      0.53009        -0.194326     -0.373342      0.913121
O       1.96256      1.93468     13.55680        -0.312402      0.341391      0.383249
O       2.04677     13.51550      0.46544        -0.508365      0.097299      0.665897
O       1.90583     13.53279     13.59074        -0.436387     -0.344972     -0.530455
O      13.47161      1.79054      0.48301        -0.018416      0.052530     -0.670146
O      13.19699      1.90365     13.66077         0.844901     -0.182391      1.320589
O      13.52653     13.46896      0.50152        -0.165477     -0.271753      1.391077
O      13.45471     13.23561     13.53457        -0.221071      0.493881      1.285768
O       1.91973      2.01245      4.86628        -0.333553     -0.562756     -0.003279
O       1.96241     13.42255      4.87980        -0.435697     -0.299618      1.273997
O      13.48772      1.86737      4.82825        -0.282928      0.326946      1.504430
O      13.23765     13.42394      4.85852         0.564578     -0.184758      0.547679
O       1.91271      1.92022      9.08784         0.080403     -0.057148      1.748717
O       1.91212     13.54172      9.21357        -0.499774     -0.292162     -0.013013
O      13.25068      1.82460      9.27954         0.621481      0.291675      0.284634
O      13.30965     13.60793      9.27266         0.412021     -0.570158     -0.427291
O       1.88839      5.89814      0.63382        -0.026487     -0.511668      0.015157
O       1.79544      5.63949     13.62912         0.287339      0.298584      1.062712
O      13.35506      5.60193      0.51784         0.235895      0.400723     -0.159914
O      13.50539      5.64764     13.56358        -0.459503      0.316783      0.877101
O       1.81573      5.67005      4.72423         0.279283      0.221637      1.455787
O      13.24997      5.82958      4.82300         0.216407     -0.595311      1.024178
O       1.86259      5.87349      9.22563        -0.077521     -0.134527      0.435343
O      13.45858      5.71022      9.29117        -0.183973      0.670009      1.197680
O       1.85641      9.49758      0.47766         0.268757      0.114072     -0.122695
O       1.89475      9.51878     13.62368        -0.098103      0.342370     -0.077713
O      13.37381      9.49484      0.53298         0.211261      0.260123      0.050582
O      13.44671      9.65884     13.60931        -0.252814      0.155629      0.282073
O       1.78028      9.67144      4.92179         0.127033      0.042170      1.330830
O      13.50777      9.54225      4.79255        -0.242162      0.342823      0.986121
O       1.64652      9.45948      9.15358         0.576936      0.208288      0.916141
O      13.34865      9.59541      9.35013        -0.174200     -0.088713     -0.188344
O       5.84843      1.95297      0.55005        -0.373982     -0.228818      1.351125
O       5.82048      1.96055     13.46003        -0.259620     -0.403085      1.374413
O       5.62837     13.42206      0.43001         0.034128     -0.013553      0.927877
O       5.64139     13.39379     13.46575         0.299429     -0.080560      1.261124
O       5.66149      1.88219      4.82050         0.461190     -0.003937      1.754879
O       5.77331     13.46097      4.85035        -0.128966     -0.175291      0.622531
O       5.76948      1.99164      9.26047         0.162310      0.023032      0.532504
O       5.84087     13.35172      9.22425        -0.010020      0.241464      0.838307
O       5.71272      5.74407      0.51854         0.444708      0.145398      1.191094
O       5.93030      5.76185     13.60949        -1.065675     -0.204986      0.507979
O       5.65994      5.83458      4.80336         0.724837      0.044167      1.312252
O       5.58279      5.74778      9.18288         0.336325      0.021992      0.329349
O       5.75581      9.51940      0.54826        -0.090431      0.079540      0.077897
O       5.66162      9.57922     13.49336        -0.241974     -0.175036      1.688006
O       5.69985      9.73909      4.87274         0.140222      0.043460      0.501961
O       5.63905      9.60085      9.18230        -0.098384     -0.412574     -0.057285
O       9.57409      1.78231      0.57952        -0.140621      0.302251      1.458132
O       9.51960      1.88000     13.62477         0.365935     -0.075760      0.276051
O       9.42707     13.50329      0.43548         0.719430     -0.468443      1.668711
O       9.48225     13.42579     13.55524         0.427610     -0.018748      1.538050
O       9.42474      1.95512      4.91719         0.522073     -0.060410      0.740471
O       9.73835     13.26642      4.93195        -0.194764      0.392875     -1.002057
O       9.60888      1.89508      9.16637        -0.023135     -0.061412      1.072841
O       9.62135     13.26364      9.21048         0.137848      0.365003     -0.702761
O       9.54708      5.78022      0.46500         0.013336     -0.448352      0.954639
O       9.40243      5.68935     13.61482         0.793627      0.382551      1.210515
O       9.65466      5.82417      4.85695        -0.096755     -0.549550      1.507983
O       9.52141      5.99623      9.29834         0.326496     -0.389787     -1.506916
O       9.42586      9.53652      0.52904         0.191857      0.157325      1.005946
O       9.49754      9.57668     13.52309         0.025447     -0.220245      1.195002
O       9.67529      9.66583      4.69104        -0.564302     -0.313291      0.642484
O       9.41388      9.51420      9.29035         0.840878     -0.064872     -0.274220
O       3.77741      1.98142      2.77427         0.921546     -0.018981     -0.375793
O       3.90437      1.91028     15.78972        -0.870755      0.261576     -0.187224
O       3.73753     13.47061      2.69799         1.284625      0.004213      0.216581
O       3.76498     13.39213     15.63451         0.461398     -0.210338      0.682063
O      15.33777      1.79157      2.66014         0.545957      0.218540      0.144745
O      15.29647      1.94858     15.74588         0.602886     -0.234824     -0.061268
O      15.31139     13.50199      2.80279         0.087358      0.058596     -0.324590
O      15.33875     13.34065     15.72244        -1.472767      0.739072      0.102983
O       3.82421      1.93442      6.97689        -0.225740     -0.041908      0.458815
O       3.76029     13.26819      7.15020         0.698240      0.319590     -0.344231
O      15.32730      1.86057      7.07506        -0.535629     -0.184389     -0.093825
O      15.30091     13.42561      7.10073        -0.342651     -0.066344     -0.040624
O       3.86401      1.79083     11.32620        -0.100302      0.415371      0.194042
O       3.81447     13.56329     11.34243        -0.146683      0.129983     -0.276964
O      15.33213      2.03207     11.32099        -0.060047     -0.208847      0.115212
O      15.27936     13.30699     11.54649         0.909666      0.665925     -0.985465
O       3.79417      5.68702      2.72614         1.627607      0.267411     -0.034198
O       3.83210      5.68281     15.83729        -0.112101      0.177159     -0.207481
O      15.32928      5.74655      2.76275        -0.857758     -0.017000     -0.374780
O      15.26863      5.79802     15.90076         0.488523     -0.385861     -0.235765
O       3.77832      5.65550      6.93710        -0.334198      0.617633      0.187123
O      15.21633      5.79678      7.06389         0.875541     -0.059034     -0.183398
O       3.79834      5.67980     11.41519         0.263580      0.459431      0.184732
O      15.31781      5.71273     11.55729        -0.068996     -0.454204     -0.709691
O       3.78482      9.61743      2.70151         0.948591     -0.240402      0.089764
O       3.78982      9.62479     15.77772        -0.597526      0.212856     -0.034960
O       0.11993      9.43651      2.65920        -1.664556      0.826926     -0.090045
O      15.24956      9.40058     15.82492         0.628711      0.648851     -0.311681
O       3.74817      9.63511      6.98460        -0.388223      0.070285      0.449762
O      15.15036      9.54865      7.10033         1.875182      0.053824      0.271561
O       3.76149      9.43757     11.40485        -0.506688      0.394566     -0.207967
O      15.34402      9.71009     11.44573        -0.202104      0.180429     -0.042455
O       7.67143      1.79787      2.88521        -0.768735      0.050211     -0.799196
O       7.62555      1.89133     15.85969         0.067190     -0.146762     -0.063221
O       7.57908     13.50073      2.63506         0.918424     -0.239114      0.234973
O       7.65809     13.37898     15.73199        -1.053125      0.442023     -0.225031
O       7.65619      1.87326      7.23628        -0.572989      0.081004     -0.618791
O       7.77433     13.37527      6.99259        -0.944566      0.885318      0.014911
O       7.79407      1.88232     11.49586        -1.275906      0.129101     -0.864924
O       7.70836     13.38222     11.42424         0.103178     -0.105954     -0.526775
O       7.77828      5.83460      2.73264        -1.823279     -0.392703     -0.116811
O       7.62585      5.81905     15.76323         0.175218     -0.301192      0.691004
O       7.61991      5.78278      7.14091         0.320115      0.213991     -0.732249
O       7.66866      5.75560     11.35924        -0.851517     -0.303279     -0.289609
O       7.65175      9.50543      2.74325         0.341627      0.824310      0.190452
O       7.60870      9.59099     15.77672        -1.022060     -0.320506      0.058479
O       7.64000      9.43376      6.87121         0.192952      0.427066      0.056281
O       7.63934      9.47950     11.34235        -0.630116      0.344175      0.273136
O      11.61760      1.81711      2.74753        -1.888900      0.673361     -0.100420
O      11.43591      1.82116     15.75727         0.384326     -0.087499      0.513780
O      11.44891     13.43193      2.74728         0.099401     -0.381729     -0.792056
O      11.49692     13.51274     15.80772        -0.530494     -0.950907     -0.441087
O      11.46452      2.00571      6.99186         0.623838      0.330695      0.023927
O      11.56314     13.44516      7.16003        -0.312820     -0.757417     -0.028815
O      11.48932      1.86035     11.45339        -0.191725      0.064602      0.185619
O      11.44648     13.39051     11.59163         0.612029     -0.087576     -0.767872
O      11.44998      5.66578      2.65417         0.874481     -0.259557      0.258855
O      11.49117      5.69166     15.82383        -0.733643     -0.331911     -0.223047
O      11.54603      5.65745      7.24108        -1.478124      0.820845     -0.942271
O      11.45853      5.95395     11.49782         1.497232     -0.615998     -0.478198
O      11.54276      9.57079      2.61728        -0.855287      0.522034     -0.006400
O      11.30138      9.63298     15.90634         1.349973      0.204809     -0.338577
O      11.49266      9.58604      6.90078        -0.544743      0.241815      0.591704
O      11.45448      9.42463     11.46574         0.592137      0.344111      0.028089
O       1.83509      3.82488      2.69453        -0.198650     -1.305018     -0.028324
O       1.97596      3.84807     15.95108        -0.777961     -0.294638     -0.497794
O       1.89739     15.35658      2.80903         0.154296      0.567873     -0.202824
O       1.91714     15.35266     15.56452        -0.367209      1.104796      0.966188
O      13.39466      3.78776      2.65770         0.117830     -0.129111     -0.083151
O      13.28571      3.76311     15.95567         0.763952     -0.098102     -0.508303
O      13.27710     15.33990      2.74371         1.099031     -0.714827     -0.357715
O      13.35678     15.21878     15.82220         0.845212      1.143287     -0.460059
O       1.72333      3.83365      6.90073         0.434004      0.472628      0.482054
O       1.92610     15.26757      7.03513        -0.048536      0.718902     -0.048010
O      13.42324      3.86041      7.17388        -0.360893     -0.528442     -0.855748
O      13.32536      0.00930      6.99846         0.188504     -0.098798      0.162519
O       2.02959      3.84995     11.28270        -0.702910     -0.770124      0.300686
O       1.77229      0.06634     11.34589        -0.151289     -0.475670      0.219453
O      13.26356      3.81296     11.49608         0.650978      0.741835     -0.570633
O      13.39258     15.31973     11.51052         0.365014      0.214338      0.026141
O       1.91604      7.64263      2.81020         0.640363      0.487004     -0.213958
O       1.96994      7.65294     15.85589        -0.243988      0.192429     -0.317046
O      13.24805      7.59682      2.69646         0.908871      0.268197     -0.380359
O      13.21100      7.65285     15.66749         0.247942      0.009242      0.109435
O       1.79275      7.61702      6.87656         0.187505      0.948519      0.537307
O      13.25104      7.64198      7.01430         0.385828      1.122345      0.094933
O       1.82435      7.64842     11.47107        -0.162006      0.434395     -0.188754
O      13.67842      7.79016     11.45619        -1.072850     -1.519264     -0.368180
O       1.94529     11.60366      2.65990        -0.669647     -1.163359      0.024163
O       1.68125     11.55476     15.80800         0.872238     -1.700219     -0.398874
O      13.50828     11.49892      2.75741        -0.213839     -0.149732     -0.586626
O      13.36086     11.42621     15.96578         0.063028      0.718058     -0.763893
O       1.78594     11.48243      7.18260        -0.310001     -0.540969     -0.115968
O      13.35359     11.51696      7.18646         0.244948     -0.169586     -0.553825
O       2.04142     11.55064     11.43435        -0.683713     -0.658937     -0.508972
O      13.32735     11.56661     11.33073        -0.236956     -1.830846      0.249710
O       5.88154      3.86264      2.72344        -0.572701     -0.037290     -0.528662
O       5.80059      3.77418     15.78581        -0.117029      0.943691      0.096955
O       5.53018     15.32904      2.65146         0.649793      0.541250      0.016679
O       5.65697     15.32916     15.67947         0.557901     -0.278535      0.090560
O       5.67508      3.85439      7.00804         0.629138     -0.085146      0.166007
O       5.69590     15.30804      7.17915         0.287799      0.174444     -0.497929
O       5.76988      3.80338     11.54276         0.124494      0.205039     -1.022082
O       5.91671     15.29174     11.39147        -0.374486      0.928522     -0.310421
O       5.81705      7.76298      2.78060        -0.631954     -1.719634     -0.222330
O       5.62901      7.66779     15.64358         0.205051      0.102621      0.576826
O       5.57926      7.73733      6.91978         0.108005     -0.777510      0.415425
O       5.65189      7.61368     11.38837         0.235592     -0.078559     -0.095354
O       5.66004     11.57562      2.63667         0.315961     -0.746188      0.232493
O       5.66424     11.50706     15.75727         0.306319     -0.102748     -0.011876
O       5.83461     11.56348      7.20770        -0.425992     -0.802521     -0.803465
O       5.67639     11.44950     11.39204        -0.097838      0.223380     -0.152528
O       9.57479      3.74379      2.77645        -0.136986      0.205234     -0.439320
O       9.46244      3.74597     15.79313         0.110973      1.473390      0.314714
O       9.54714     15.28976      2.81596         0.287135     -0.404652     -0.129538
O       9.45572      0.02686     15.93614         0.289008     -0.831776     -0.799300
O       9.53037      3.86309      7.24188        -0.125245      0.706160     -0.816900
O       9.75326      0.02066      7.07772        -0.905128     -0.379654     -0.356542
O       9.55508      3.79939     11.45165         0.773199      0.708600     -0.673798
O       9.64684     15.31807     11.32104        -0.353208     -0.106186     -0.023346
O       9.62346      7.64284      2.63817         0.000638      0.451957      0.295345
O       9.63749      7.65351     15.81825        -0.757242     -0.128005     -0.493408
O       9.60134      7.67869      6.97851         0.216114     -0.609828      0.131315
O       9.46731      7.60341     11.49202         0.526553      1.008572      0.433128
O       9.61200     11.49091      2.71673        -0.561765      0.441115     -0.482683
O       9.47055     11.50609     15.78288         0.498388      0.408757     -0.117525
O       9.45680     11.46521      6.98567         1.046525     -0.753568      0.150373
O       9.57154     11.47112     11.38197         0.335580      0.013222     -0.003519
