  # total energy = -7868.39172984 
CRSYTAL
PRIMVEC
    15.010000000000000    0.0000000000000000    0.0000000000000000
     0.0000000000000000   15.010000000000000    0.0000000000000000
     0.0000000000000000    0.0000000000000000    16.400000000000000
PRESSURE
19.1571 19.3225 9.5902 -0.173586 0.038534 0.049552
PRIMCOORD
320 1
Pb       3.64679      3.74137      4.05479         0.337104     -0.143149      0.893511
Pb       3.72923      3.70057      0.00301         0.242681      0.540953      0.469342
Pb       3.78943     14.94045      4.10128        -0.041634      0.147044      0.268110
Pb       3.67856     14.97562      0.03080         0.248421      0.451962     -0.262688
Pb       0.01109      3.73884      4.10398         0.121615     -0.040388      0.318592
Pb      15.00700      3.82698      0.01600         0.465369     -0.060948      0.849784
Pb       0.02277     14.96317      4.03519         0.132626      0.122784      0.630975
Pb      15.00762      0.02351     16.35593         0.238388      0.049908      0.637314
Pb       3.82685      3.76437      8.13800        -0.779021     -0.369025      0.940812
Pb       3.75313     14.94902      8.20200        -0.146711      0.542117      0.549225
Pb      15.00416      3.70523      8.09951         0.492552     -0.250090      0.900649
Pb       0.06464      0.04676      8.22482         0.063106     -0.046083      0.506733
Pb       3.72238      3.71196     12.36249         0.014214      0.036806      0.298436
Pb       3.76792     14.97056     12.26449        -0.481593      0.098646      0.796517
Pb      14.96347      3.76212     12.26206         0.571160     -0.151678      0.185921
Pb      14.95305     14.99511     12.30760         0.339364      0.804541      0.287144
Pb       3.81107      7.45036      4.13131        -0.614346      0.608731      0.569136
Pb       3.69088      7.51923     16.30189         0.492311     -0.654586      1.674878
Pb      14.91074      7.50385      4.07916         0.953960     -0.126631      0.597490
Pb      14.99894      7.51947     16.35556         0.161413     -0.478860      0.196631
Pb       3.75221      7.42285      8.27733         0.010492      0.572960      0.056303
Pb      14.93521      7.45021      8.10883         0.797848      0.858220      1.083860
Pb       3.75142      7.41722     12.35719        -0.516765      0.332965      0.177686
Pb      14.98173      7.56368     12.30098         0.253538     -0.225269      0.703301
Pb       3.75607     11.29063      4.01660        -0.407514     -0.448435      0.846571
Pb       3.71651     11.37519      0.02093         0.300016     -1.382129      0.248108
Pb      14.90741     11.32207      4.08679         0.953321     -0.341304      0.427395
Pb      14.94624     11.13709     16.36437         0.210254      0.429419      0.489499
Pb       3.73261     11.28912      8.20377        -0.349550     -0.471406      0.653328
Pb      14.91720     11.27957      8.17258         0.638071     -0.839920      0.926430
Pb       3.70443     11.19760     12.33725         0.132640      0.209532      0.494409
Pb      14.94068     11.21742     12.30745         0.388876     -0.248380      0.379206
Pb       7.45578      3.66300      4.18790         0.048581      0.471679     -0.759353
Pb       7.46010      3.67356      0.03716        -0.250636      0.871754      0.369018
Pb       7.48552      0.04103      4.09319        -0.302651     -0.468727      0.310079
Pb       7.60086      0.05322      0.05105        -0.331352     -0.586307      0.117431
Pb       7.50764      3.77161      8.18189        -0.083965      0.067903      1.182608
Pb       7.49248     14.84128      8.20864        -0.367987      0.568261      0.508201
Pb       7.57788      3.68655     12.32242        -0.448220     -0.276641      0.235678
Pb       7.46915      0.06085     12.31859         0.167533     -0.017118      0.304884
Pb       7.50351      7.49166      4.20338        -0.077061      0.058578     -0.401723
Pb       7.44260      7.48495      0.00595         0.244485     -0.325251      0.883319
Pb       7.45146      7.52311      8.08389         0.160436     -0.074430      1.315715
Pb       7.42836      7.45041     12.27445         0.379469      0.591860      0.619807
Pb       7.38145     11.21840      4.08750         0.322767      0.111924      0.472742
Pb       7.46584     11.20456     16.37154         0.297221      0.349375      0.528587
Pb       7.40914     11.20801      8.25078         0.106069      0.060995      0.587404
Pb       7.45242     11.21029     12.39959         0.432376      0.105011      0.077409
Pb      11.35405      3.69233      4.08710        -0.109964      0.097887      0.666488
Pb      11.20046      3.69506      0.00462         0.175782      0.562504      0.200074
Pb      11.16678      0.01788      4.07312         0.151861     -0.409266      0.903052
Pb      11.32100      0.04558     16.35844        -0.749347     -0.439745      0.685750
Pb      11.22257      3.69406      8.18684         0.381753      0.613132      1.305333
Pb      11.23720     14.97757      8.15372        -0.068125     -0.472965      0.847384
Pb      11.29024      3.74284     12.34343        -0.475176      0.508914     -0.101800
Pb      11.25583     14.90694     12.24532         0.086964      0.352755      0.536439
Pb      11.19866      7.48451      4.04044         0.368548      0.195812      1.093902
Pb      11.28904      7.50676     16.34483        -0.251761     -0.198759      0.486508
Pb      11.33287      7.52859      8.16214        -0.647199      0.018316      0.583755
Pb      11.25002      7.58310     12.33567        -0.069451     -0.732040      0.539895
Pb      11.16547     11.27082      4.07661         0.112898     -0.379868      0.552712
Pb      11.24193     11.33700     16.36655        -0.583637     -0.320966      0.654295
Pb      11.23948     11.20699      8.08915        -0.125801      0.181901      1.602423
Pb      11.30023     11.17665     12.32143        -0.655761      0.498421      0.177185
Ti       1.93067      1.87692      2.11515        -1.785486     -0.148710     -0.281229
Ti       1.83620      1.89436     14.47353         0.726768     -0.280986     -0.509046
Ti       1.90075     13.10416      2.08584        -1.545917     -0.096327      0.296111
Ti       1.88537     13.11568     14.42459         0.055867      0.594949     -1.053908
Ti      13.14989      1.81068      2.22600         0.533593      0.417528     -0.153792
Ti      13.11692      1.92617     14.43601         0.660973     -0.988682     -0.738423
Ti      13.06744     13.09045      2.19978         0.619529      0.132759     -0.737277
Ti      13.17730     13.14217     14.54791        -1.038432     -0.353604     -0.988353
Ti       1.89555      1.83221      6.18851        -0.161043      0.627423      0.561361
Ti       1.82673     13.07361      6.26174         0.059649      0.487757     -0.260240
Ti      13.08151      1.79316      6.29928         1.361774      0.375702     -1.121086
Ti      13.09717     13.07217      6.30494         0.135914      0.571051     -0.993310
Ti       1.91528      1.88009     10.37889        -1.237854     -0.750077     -1.202233
Ti       1.83602     13.09832     10.41835         0.399807      0.378554     -0.864374
Ti      13.07658      1.92774     10.32719         1.060445     -1.482838     -0.277784
Ti      13.15331     13.10319     10.38118        -1.066973      0.424424     -1.230053
Ti       1.93922      5.63902      2.18771        -0.488181     -0.250686     -1.883423
Ti       1.89022      5.59178     14.43429        -0.568828     -0.065116      0.456077
Ti      13.14419      5.65168      2.19467         0.987426     -1.140228     -1.339932
Ti      13.14387      5.54916     14.50507        -0.332805      1.943464     -1.046599
Ti       1.90822      5.63560      6.29099        -0.174537     -0.317666     -0.595437
Ti      13.15191      5.62511      6.29290        -0.483916     -0.826760     -0.800297
Ti       1.84666      5.61908     10.30480         0.444583     -0.471691     -0.420793
Ti      13.16000      5.62027     10.29525        -0.983851      0.571692      0.236609
Ti       1.91634      9.33096      2.16614         0.356956      0.165538     -0.190089
Ti       1.89300      9.41117     14.59601        -0.657786     -1.076748     -1.735784
Ti      13.20171      9.35590      2.11890        -1.104461      0.730679     -0.235998
Ti      13.03587      9.35548     14.47148         0.988790      0.113751     -0.268124
Ti       1.88566      9.36141      6.27088        -0.359226      0.057882     -0.617982
Ti      13.12208      9.35866      6.19595         0.549355      0.282281     -0.450445
Ti       1.90888      9.34250     10.39136        -0.772663      0.085062     -1.072146
Ti      13.09104      9.34569     10.36061         0.187241     -0.070392     -1.475686
Ti       5.59360      1.88071      2.10615         0.395494      0.010285     -0.185353
Ti       5.63612      1.83432     14.49620        -0.753749      0.429916     -0.985803
Ti       5.62441     13.11018      2.00928         0.467861      1.449803      1.117524
Ti       5.64062     13.13814     14.47298         0.137155     -0.273102     -0.128074
Ti       5.61453      1.89162      6.24903        -0.251218     -1.419793     -1.171094
Ti       5.55125     13.09017      6.30469         0.646672      0.372664     -0.149558
Ti       5.57454      1.86115     10.39781         0.867359      0.014403     -0.641865
Ti       5.64110     13.09698     10.42714        -1.069880      0.271158     -0.609558
Ti       5.66747      5.63981      2.22645        -0.055654      0.186198     -0.987091
Ti       5.62371      5.59548     14.44873        -0.403492     -1.868347      0.596906
Ti       5.66111      5.61910      6.22744        -0.676049      0.836774     -0.447667
Ti       5.61516      5.58406     10.37929        -0.483771     -0.419818     -0.529600
Ti       5.62835      9.40137      2.14421        -0.467710     -1.662383     -0.560374
Ti       5.64370      9.30929     14.43937        -1.593732      1.330820     -0.186003
Ti       5.53572      9.38115      6.25250        -0.078874      0.053236     -0.344368
Ti       5.63351      9.36765     10.38850        -0.089514      0.159938     -1.127051
Ti       9.37655      1.90504      2.14394        -0.665682     -0.466198      0.575286
Ti       9.35480      1.90026     14.47658         0.105862     -0.491928     -0.549982
Ti       9.32822     13.11657      2.21292         0.206273     -0.351940     -1.631496
Ti       9.36798     13.15701     14.42977        -0.069315     -0.765961     -0.358179
Ti       9.32430      1.87524      6.28657         0.064798     -1.129423     -0.227335
Ti       9.29711     13.05628      6.31319        -0.584942      1.264646     -1.391313
Ti       9.39993      1.86961     10.29950        -1.256923     -0.105259      0.320337
Ti       9.31504     13.10709     10.47739         0.464672     -0.935347     -0.984365
Ti       9.40592      5.64728      2.17420        -1.194596     -1.029999     -0.830293
Ti       9.35759      5.66920     14.44157         0.125860     -0.284555     -0.043966
Ti       9.39345      5.57488      6.27505         0.242414      1.335112     -0.649205
Ti       9.30696      5.67317     10.42517         1.469741     -1.768739     -1.362211
Ti       9.42346      9.35556      2.19924        -1.491350      0.232363     -1.183638
Ti       9.30087      9.38365     14.49019         0.298886     -0.031418     -1.193962
Ti       9.34335      9.37918      6.28097        -0.197051     -0.609610     -0.778254
Ti       9.37668      9.32765     10.27494        -0.344475      1.171471      0.618602
O       1.86715      1.80541      0.29124        -0.086444     -0.145483      0.580670
O       1.80639      1.85579     12.69125        -0.073123      0.437390     -0.763472
O       1.76925     13.15659      0.30718         0.415406     -0.051842     -0.325147
O       2.00825     13.09477     12.56413        -0.622517     -0.104070      1.470183
O      13.04213      1.86893      0.43224         0.108640     -0.263515     -0.341983
O      13.12203      1.84028     12.60430         0.020960      0.508406      0.790072
O      13.01894     13.12126      0.36950         0.318044      0.028385      0.122942
O      13.09609     13.15508     12.72232        -0.083932     -0.232468      0.074946
O       1.88447      1.86441      4.40618         0.046517      0.067197     -0.509226
O       1.98677     13.11636      4.46841        -0.574063     -0.040307     -0.264964
O      13.14520      1.82244      4.45223        -0.277965      0.191268      0.734436
O      13.14762     12.95894      4.46839        -0.308306      0.399032      0.459226
O       1.98548      1.77735      8.52427        -0.014389      0.166781      0.694003
O       1.62408     13.14585      8.57452         0.796530     -0.080610      0.343799
O      13.06057      1.89606      8.49778        -0.154293     -0.433257      0.305902
O      13.16555     13.08071      8.54067        -0.208129      0.177604      0.565389
O       1.96074      5.56579      0.33511        -0.524589      0.242960      1.151878
O       1.78280      5.52285     12.63368         0.500216      0.069567     -0.049304
O      13.12583      5.68100      0.34066        -0.179269     -0.233972      0.948843
O      13.11670      5.55273     12.69158         0.185290     -0.366944     -0.002025
O       1.80522      5.47947      4.48203         0.322543      0.473352     -0.033531
O      13.16331      5.60998      4.45757        -0.063971      0.006196      0.051963
O       1.83135      5.53863      8.47007         0.155340      0.639780      0.885709
O      13.22876      5.65728      8.47078        -0.480541      0.038757      0.863836
O       1.85937      9.37151      0.31237        -0.063171     -0.207621      0.562323
O       1.87585      9.37030     12.75997        -0.157116      0.036644     -0.242137
O      13.08539      9.36176      0.29800         0.241430     -0.172507      0.096039
O      13.12081      9.50612     12.66073        -0.218272     -0.384691     -0.012238
O       1.94685      9.32056      4.48503        -0.496213      0.242892     -0.324446
O      13.16530      9.32597      4.37401        -0.061377      0.211254      0.294207
O       1.86766      9.33622      8.57379         0.175496     -0.081007      0.996112
O      13.06550      9.27684      8.49294        -0.153607      0.190395      1.071122
O       5.64127      1.85300      0.29497        -0.361799     -0.521419      0.401143
O       5.74820      1.88521     12.63428        -0.437103     -0.034981      0.737246
O       5.67383     13.24044      0.26215        -0.300143     -0.378336      0.120174
O       5.54741     13.09783     12.68868        -0.021455      0.191045     -0.618056
O       5.63696      1.90784      4.35325         0.129415      0.006120      1.504828
O       5.48310     13.09892      4.54219         0.467409     -0.068856     -1.460631
O       5.46123      1.78124      8.58994         0.348236      0.298622     -0.642580
O       5.66497     13.13955      8.57999        -0.104010     -0.324290      0.168136
O       5.58925      5.58693      0.41676         0.277717      0.455285     -0.008830
O       5.52802      5.42459     12.67173         0.210044      0.576515     -0.204676
O       5.61146      5.73592      4.41638         0.435798     -1.057464      0.684039
O       5.71302      5.67313      8.56370        -0.136450     -0.300418      0.410823
O       5.53194      9.30693      0.32286         0.451688      0.173135      0.553569
O       5.64455      9.52191     12.61885         0.193983     -1.223481      0.826150
O       5.44631      9.43278      4.42510         0.815887     -0.030383      0.800627
O       5.54495      9.41371      8.50036         0.112355     -0.265654      1.867063
O       9.41756      1.83552      0.35197         0.163649      0.167263     -0.297191
O       9.25313      1.82498     12.71821         0.320232      0.051475     -0.746404
O       9.42611     12.98201      0.35580        -0.350961      0.666484      0.934195
O       9.29136     13.11311     12.58926         0.562287      0.048075      0.861938
O       9.33732      1.78134      4.46381        -0.201537      0.548861      0.132750
O       9.28651     13.17375      4.46836         0.201570     -0.449346      0.477549
O       9.34684      1.87077      8.50849         0.364628     -0.085054     -0.367469
O       9.18831     13.00821      8.61246         0.507777      0.501924      0.283971
O       9.27387      5.64986      0.35433         0.683278     -0.242096      0.645665
O       9.34660      5.71489     12.60596         0.207054     -0.335879      0.962338
O       9.28475      5.57562      4.44842         0.724879     -0.054713      1.048133
O       9.25816      5.54013      8.56916         0.165546      0.366531      0.880916
O       9.23829      9.34809      0.37901         0.478151      0.091884      0.499287
O       9.30948      9.27007     12.65610        -0.246111      0.134666      0.965140
O       9.35219      9.30241      4.45574         0.121181      0.210399      0.273904
O       9.46229      9.39806      8.47492        -0.228474     -0.094847      0.121170
O       3.71505      1.99772      2.45226         0.829384     -0.059864     -0.223788
O       3.71537      2.01423     14.72205         0.529958     -1.091718     -0.201640
O       3.75677     13.03200      2.33833         0.316718      0.188282     -0.202979
O       3.72650     13.04649     14.88576        -0.336630      0.701660     -0.625784
O       0.01431      1.74316      2.47372        -0.056967     -0.340884     -0.277001
O      14.97966      1.85027     14.76524        -0.941778      0.116157      0.215693
O      14.98995     13.20631      2.41253         0.244090     -0.463386      0.151452
O       0.02114     13.01086     14.71478        -0.723493      0.731920      0.093821
O       3.79037      1.72058      6.48231        -0.292474      0.010861      0.012527
O       3.70994     13.16996      6.59059        -0.851726      0.288066      0.428133
O       0.03673      1.98339      6.52011        -0.990972      0.053862     -0.083132
O      14.96432     12.91213      6.56336         0.124491      0.451478     -0.791936
O       3.71811      1.91217     10.84611         0.332155      0.041266     -0.369889
O       3.72845     12.94653     10.55396        -0.084708      0.189969      0.027716
O      14.98629      1.69214     10.58393        -0.191781      0.462653      0.092940
O      14.96200     13.27321     10.81333         0.275296     -1.179283     -0.533258
O       3.75958      5.47875      2.54580         0.686744     -0.163053     -0.168872
O       3.70884      5.48411     14.83890         1.209855      0.307307     -0.878295
O       0.06419      5.65946      2.36967        -1.524927      0.579279      0.424159
O      14.99761      5.67449     14.77881         0.152376     -0.368613      0.065683
O       3.80280      5.77012      6.59174        -0.651234     -0.204306     -0.161171
O      15.00098      5.43031      6.53661         0.020836      0.464926     -0.335889
O       3.72611      5.56808     10.61228         0.151920     -0.380945      0.112914
O       0.02017      5.71939     10.65643        -0.563912      0.084480     -0.088908
O       3.74381      9.41095      2.52649        -0.071497      0.344599     -0.728878
O       3.73892      9.34896     14.78524         0.480975      0.375910     -0.333310
O       0.00723      9.22054      2.38330         0.484583      0.186329      0.118242
O      14.96628      9.24277     14.67515        -0.078868      0.460996      0.537599
O       3.72827      9.16229      6.67449        -0.416489      0.333679     -0.363919
O      14.96067      9.47556      6.53950         0.363045     -0.075405     -0.165851
O       3.78086      9.44195     10.83457        -0.526515     -0.321968     -1.009208
O      14.90551      9.27434     10.66293         1.949205      0.071474      0.046842
O       7.44807      1.69656      2.36956         1.437042      0.012228      0.084786
O       7.50893      1.81073     14.89733         0.163360     -0.190227     -0.496909
O       7.49780     13.14008      2.45436        -1.383623      0.320625      0.021213
O       7.48764     13.16863     14.78473         0.116544     -0.090839     -0.162561
O       7.47334      2.03109      6.59563         0.229559      0.028199     -0.421454
O       7.44043     12.86592      6.60551        -0.064772      0.373235     -0.355403
O       7.49480      1.75756     10.67913         0.009297      0.098418     -0.540733
O       7.44423     13.13732     10.77716         0.302184      0.728272     -0.275151
O       7.54813      5.77084      2.51838        -0.803638      0.017555     -0.102595
O       7.45627      5.59716     14.79615         0.584392      0.322416     -0.440239
O       7.50615      5.54592      6.57454         0.158054     -0.491044     -0.300751
O       7.46530      5.60080     10.82648         0.127041      0.380211     -0.754866
O       7.46371      9.15903      2.49744         0.155576      0.683650     -0.098974
O       7.41660      9.36908     14.85294         0.764192     -0.535057     -0.481822
O       7.42882      9.56243      6.53984         0.602545     -0.515671     -0.294348
O       7.52530      9.23416     10.59796        -0.871024     -0.603094     -0.043673
O      11.24867      1.93198      2.50177        -0.289649     -0.083775     -0.082688
O      11.25712      1.89635     14.69064        -0.237164      0.275037      0.415063
O      11.20203     12.97802      2.48344         0.470605      0.094621      0.111963
O      11.22537     13.01729     14.76194         0.309924      0.444017     -0.331368
O      11.22593      1.62894      6.51257        -0.336885      0.279164     -0.113990
O      11.16760     13.22823      6.56086         0.907448     -0.006479      0.067544
O      11.22038      2.00965     10.71984         0.910779     -0.547055     -0.261093
O      11.23237     12.98879     10.63631        -0.040041      0.168954      0.155163
O      11.29020      5.44533      2.54983        -0.352742      0.383988     -0.554945
O      11.23417      5.55756     14.81871        -0.439268     -0.001222     -0.178504
O      11.27354      5.80829      6.63972        -0.617247     -0.614724     -0.727864
O      11.29307      5.44717     10.68288        -0.146369      0.472715     -0.500403
O      11.26262      9.42539      2.35942         0.054577     -0.091992      0.431100
O      11.16701      9.32938     14.64753         0.497390      0.474500      0.436623
O      11.25297      9.24686      6.44248        -0.497685     -0.010948      0.190622
O      11.20795      9.40733     10.73253         0.096074      0.092393     -0.276051
O       1.72652      3.74761      2.39488         0.382481     -0.950262      0.221864
O       1.85633      3.72801     14.85422        -0.822622      0.463293     -0.414492
O       1.98578     14.96258      2.38167         0.101643      0.541418      0.203885
O       1.78657     14.99924     14.64954         0.448173     -0.857389      0.527156
O      13.30314      3.70581      2.44471        -0.731662      0.428451      0.078841
O      13.15583      3.75858     14.84453        -0.217161     -1.283784     -0.029525
O      13.07789     14.91522      2.63086        -0.489528      0.715767     -0.755693
O      13.02594      0.02697     14.86412         0.792098     -0.348576     -0.730070
O       2.05571      3.74543      6.58043        -0.135170     -0.394749     -0.342324
O       1.70914      0.00433      6.48907         0.273459     -1.060559      0.031607
O      12.94385      3.71342      6.61140         0.156314      0.061899     -0.778062
O      13.29849     14.93682      6.58134        -0.518263      0.362803     -0.216333
O       1.78605      3.69715     10.53865        -0.170899      1.366399      0.465788
O       1.91002     14.99551     10.68245         0.446025     -0.623831     -0.014128
O      13.30690      3.75963     10.56219        -0.237909      0.045866      0.145409
O      13.05551     14.99459     10.64010        -0.686425      0.054310     -0.155453
O       2.07214      7.46300      2.48293        -0.651420      0.496337     -0.123029
O       1.92822      7.42217     14.84594        -0.410780      0.844575     -0.734876
O      13.10149      7.50952      2.46284        -0.516458     -0.713195     -0.078047
O      13.05471      7.47893     14.67030        -0.155516      0.145925      0.257369
O       1.69495      7.51459      6.57025         0.139681     -1.238942     -0.165988
O      13.21569      7.51547      6.55484         0.113960     -0.798331     -0.550058
O       2.00715      7.48094     10.75708        -0.467001     -0.098180     -0.344685
O      13.06935      7.51687     10.82192        -0.305276     -1.170733     -0.752139
O       1.86496     11.20624      2.39827        -0.541459      0.528116      0.046386
O       1.77543     11.24252     14.83445         0.521268      0.296333     -0.245675
O      13.21701     11.21887      2.50961        -0.206973     -0.142969     -0.579042
O      13.12403     11.24600     14.79541        -0.014744     -0.160394     -0.112784
O       1.91807     11.21661      6.57786         0.409431      0.417774      0.095225
O      13.01227     11.21414      6.62002        -0.214896     -0.054085     -0.548946
O       1.76431     11.18979     10.65755        -0.276589      0.422434      0.108029
O      13.14515     11.19020     10.61706         0.224505      1.178141      0.256977
O       5.85285      3.73726      2.30886        -0.313180      0.231755      0.831395
O       5.65572      3.64778     14.84028         0.205750      1.740723     -0.215017
O       5.47953      0.02057      2.43413         0.059607     -1.351909     -0.201971
O       5.55152      0.00524     14.73983        -0.209074     -0.559454      0.005508
O       5.51493      3.77281      6.49330         0.190345     -0.461952      0.022985
O       5.76357     14.96256      6.45022         0.104673      0.961550      0.384885
O       5.64614      3.69452     10.60770         0.043964      1.091984     -0.019712
O       5.42240     15.00180     10.63360         0.566491     -0.893481      0.113501
O       5.44275      7.54574      2.57895         0.721526     -0.851579     -0.917222
O       5.55477      7.42837     14.66563         0.106906      0.643533     -0.180502
O       5.70612      7.48889      6.60855         0.176208      0.204933     -0.552120
O       5.48574      7.45872     10.77980         0.601906      0.354418     -0.356996
O       5.64971     11.27215      2.35232         0.276723     -0.017027      0.131633
O       5.60397     11.23946     14.75464         0.004079     -0.125544      0.213569
O       5.40315     11.22171      6.54044        -0.002971     -0.079835      0.177777
O       5.73464     11.22710     10.73080        -0.129563     -0.238650     -0.639639
O       9.18329      3.72327      2.44815         0.498713     -0.140494      0.017285
O       9.29924      3.76215     14.64715         0.283986      0.022649      0.412499
O       9.43594     14.96480      2.47990         0.005737      0.751114     -0.391983
O       9.38384     14.96554     14.67705         0.280899      0.786306      0.583189
O       9.57650      3.75335      6.63189        -0.714612     -0.752816     -0.965649
O       9.12548     14.98302      6.56544         0.428328      0.176625     -0.038942
O       9.36181      3.68303     10.65512        -0.644106      1.184184      0.303403
O       9.46655     15.00706     10.67940        -0.136079     -0.414570     -0.343065
O       9.43861      7.44656      2.55237         0.466278      0.900986     -0.406447
O       9.40399      7.51044     14.87712        -0.610445     -0.431672     -0.529747
O       9.20273      7.48787      6.59537         0.502994      0.102098     -0.504188
O       9.51393      7.45908     10.70609        -0.498876      0.525156     -0.647013
O       9.22626     11.20447      2.57709         0.270674     -0.087885     -0.239501
O       9.26363     11.23426     14.79577         0.172271     -0.081950     -0.413961
O       9.46994     11.24794      6.52786         0.187811     -0.891687     -0.179011
O       9.15746     11.17553     10.75486         0.831913      0.137436     -0.588310
