  # total energy = -7867.62891270 
CRSYTAL
PRIMVEC
    15.010000000000000    0.0000000000000000    0.0000000000000000
     0.0000000000000000   15.010000000000000    0.0000000000000000
     0.0000000000000000    0.0000000000000000    16.400000000000000
PRESSURE
15.9967 16.2819 5.36866 -0.144733 0.016706 0.025361
PRIMCOORD
320 1
Pb       3.87418      3.76739      4.34476        -0.386226     -0.772504     -0.748741
Pb       3.79604      3.77495      0.16632         0.077340      0.143850     -0.321598
Pb       3.67051      0.09700      4.12478         0.146709     -0.211966     -0.032653
Pb       3.65951      0.01702      0.00005         0.295797     -0.584384     -0.174716
Pb       0.01511      3.68951      4.04435        -0.438284     -0.472888      0.013042
Pb       0.06329      3.79676     16.38625        -0.255776      0.058836     -0.284495
Pb       0.08685     14.98783      4.07748        -0.252562      0.295147     -0.047474
Pb      14.92513      0.02265      0.00622         0.167422     -0.244765      0.410381
Pb       3.84699      3.72922      8.29753        -0.182634     -0.355082     -0.551984
Pb       3.76644     14.80816      8.31744         0.241192      0.054135     -0.253941
Pb       0.17097      3.78950      8.29416        -0.574791     -0.223972     -0.573189
Pb       0.08971     14.93426      8.28623        -0.370597      0.038087     -0.927316
Pb       3.70795      3.79149     12.25544         0.250455     -0.746518      0.247719
Pb       3.75556     14.96849     12.47016         0.260034      0.212458     -0.469687
Pb       0.08143      3.73530     12.29003        -0.478754      0.243347      0.004827
Pb       0.02434      0.00800     12.33277        -0.332986      0.150816     -0.204943
Pb       3.56328      7.46272      4.13261         0.565870      0.385971     -0.383744
Pb       3.70082      7.37169      0.20118         0.093645      0.454151     -0.687211
Pb      14.83743      7.46351      4.09662        -0.001031      0.523878      0.056942
Pb      14.90442      7.54871      0.00878         0.647915      0.309135      0.022730
Pb       3.71737      7.47204      8.15806         0.447943      0.308288     -0.084753
Pb      14.95589      7.46425      8.25616        -0.134260      0.124508     -0.730585
Pb       3.74499      7.56325     12.31806         0.481787      0.035462     -0.207242
Pb       0.06490      7.40631     12.35669        -0.227724      0.152079     -0.245695
Pb       3.54787     11.38040      4.12561         0.873816     -0.318267     -0.074814
Pb       3.68015     11.19801     16.32663        -0.190675      0.208597      0.282354
Pb      14.90909     11.32088      4.08106         0.132086     -0.164717      0.024331
Pb      14.86885     11.29137     16.39877         0.131901     -0.505702     -0.080054
Pb       3.67098     11.16533      8.32725         0.292470      0.287434      0.000427
Pb      14.93710     11.15991      8.30088        -0.015817      0.436866     -0.390833
Pb       3.68587     11.32062     12.37810         0.134754     -0.512536     -0.362472
Pb      14.97821     11.28923     12.35654        -0.052111     -0.707451     -0.380619
Pb       7.57678      3.61991      4.21975        -0.644883      0.383793      0.059785
Pb       7.55453      3.78831      0.00821        -0.137589      0.124018      0.201457
Pb       7.48724      0.01335      4.21445        -0.079247     -0.390187     -0.106281
Pb       7.45295      0.09428      0.06044        -0.134530     -0.577106     -0.421933
Pb       7.57160      3.69294      8.24318        -0.004335      0.484784     -0.500263
Pb       7.57204     14.89703      8.31920        -0.397984     -0.272381     -0.369572
Pb       7.58634      3.70425     12.26769        -0.241618      0.015563      0.081523
Pb       7.58166     14.92203     12.46882        -0.276000      0.063017     -0.244900
Pb       7.34135      7.56644      4.12467        -0.010977     -0.328412     -0.094433
Pb       7.48915      7.53000      0.10160         0.054634     -0.381306     -0.491913
Pb       7.44524      7.54125      8.33491        -0.092719     -0.261617     -0.638708
Pb       7.52040      7.39523     12.48663         0.245351      0.102908     -0.418719
Pb       7.37672     11.34659      4.07714        -0.034212     -0.258125      0.471397
Pb       7.52267     11.25533      0.07186        -0.215700     -0.270388      0.000255
Pb       7.34945     11.15987      8.35259         0.274327      0.374048     -0.707458
Pb       7.49649     11.13134     12.44486         0.118730      0.362293     -0.055054
Pb      11.19779      3.71673      4.12668         0.387052     -0.269384     -0.381324
Pb      11.24340      3.75054     16.39806         0.113047      0.020795     -0.000355
Pb      11.24871      0.06747      4.19954         0.443720      0.062346     -0.464068
Pb      11.12011      0.02066      0.11402         0.463535     -0.006709     -0.233946
Pb      11.32585      3.79324      8.17313         0.091152     -0.295912     -0.454300
Pb      11.24441     14.89762      8.29872         0.468854     -0.121937     -0.411133
Pb      11.34213      3.74786     12.27943         0.211082     -0.155586      0.255567
Pb      11.30426      0.10738     12.29325        -0.246108     -0.374299     -0.279721
Pb      11.15493      7.45415      4.16090         0.732627      0.134397     -0.437180
Pb      11.17386      7.52943      0.11396         0.012122     -0.184453     -0.342614
Pb      11.15572      7.49990      8.20457         0.277972      0.161950     -0.339211
Pb      11.38145      7.43877     12.31349        -0.757307      0.269245      0.000694
Pb      11.20850     11.27079      4.16561         0.292795      0.093268     -0.251904
Pb      11.23762     11.17273      0.05406         0.401669      0.369783     -0.206071
Pb      11.06943     11.08579      8.29300         0.502790      0.726372     -0.706624
Pb      11.27585     11.25268     12.28360        -0.190359     -0.183736     -0.033541
Ti       1.86628      1.92774      2.08568         0.521615     -1.289731      0.122118
Ti       1.91890      1.90602     14.44098        -0.121671      0.216924     -0.112045
Ti       1.87507     13.09652      2.01250         0.031990      0.616461     -0.461607
Ti       1.77048     13.14137     14.33696         1.248404     -0.564446     -0.047743
Ti      13.16976      1.86561      1.95326        -1.665573      0.479258      0.835412
Ti      13.16928      1.85374     14.32652        -0.663219      0.881699      0.224303
Ti      13.09674     13.14737      2.02810        -0.056440      0.572581     -0.703524
Ti      13.10328     13.17731     14.28800        -0.779364     -1.065991      0.758507
Ti       1.89726      1.84901      6.28455        -0.672517     -0.319761     -0.934703
Ti       1.87993     13.06745      6.22510         0.128292      0.489353     -0.540847
Ti      13.18259      1.85209      6.16283        -0.295316      0.101855     -0.725655
Ti      13.15443     13.12626      6.14823        -0.838762      0.475178      0.113528
Ti       1.91101      1.79346     10.26540        -0.016976      1.021310     -0.515836
Ti       1.83660     13.11272     10.32812         1.094373     -0.915850     -0.483163
Ti      13.19190      1.83452     10.19067        -1.082098      0.551157      0.170208
Ti      13.14747     13.07767     10.20947        -0.945891     -0.219542     -0.396704
Ti       1.79223      5.62104      2.11182         0.568611      0.143762     -1.057931
Ti       1.92438      5.65298     14.36499        -0.340332      0.200996      0.411162
Ti      13.12545      5.59393      2.03426        -1.118744      0.408809     -0.189059
Ti      13.13917      5.63263     14.42759        -0.329359     -0.972191     -0.813477
Ti       1.81947      5.64060      6.09447        -0.341305     -0.407198      0.355992
Ti      13.10733      5.58627      6.09606         0.167184      0.818928      0.210254
Ti       2.00464      5.62736     10.23119        -1.841415     -0.035222      1.311853
Ti      13.14561      5.58981     10.19995         0.187956     -0.028321      1.169034
Ti       1.75777      9.38741      2.08446        -0.163091      0.348702     -0.677077
Ti       1.91961      9.37002     14.27987        -0.823368      0.091880      0.208265
Ti      13.06575      9.40880      2.13319        -0.299348     -1.053345     -0.347155
Ti      13.12133      9.33321     14.32031         0.325720      1.227435      0.621549
Ti       1.78927      9.40161      6.09752        -0.229533     -0.780462     -0.251007
Ti      13.08206      9.40991      6.22786        -0.434069     -0.886767     -1.010177
Ti       1.80920      9.31579     10.20271         1.283493      0.972959      0.891417
Ti      13.10096      9.31190     10.20982        -0.007650      0.959279     -0.040469
Ti       5.56589      1.79110      2.05024         0.057387      0.676645      0.335059
Ti       5.63867      1.96272     14.29026         0.101472     -1.786923     -0.117191
Ti       5.61820     13.11970      2.08098        -0.991200     -0.572875     -0.405606
Ti       5.62421     13.06811     14.41603        -0.003664      1.319912     -0.092226
Ti       5.68917      1.73828      6.33061        -1.077139      1.352200     -1.127677
Ti       5.68002     13.08520      6.19211        -0.780051     -0.001394     -0.265003
Ti       5.67733      1.81434     10.24922        -0.187001     -0.903062      0.797383
Ti       5.67589     13.09766     10.46428        -0.398512      0.119398     -1.005572
Ti       5.60047      5.56636      2.17722        -0.124422     -0.344996     -0.540948
Ti       5.60016      5.60121     14.39271         1.054497      0.952590      0.332237
Ti       5.59450      5.54863      6.23177         1.285471      0.426663     -0.502912
Ti       5.67189      5.56643     10.26862         0.846244      1.592612      0.040697
Ti       5.49348      9.38572      2.07965         0.468366      0.307632     -0.092844
Ti       5.61069      9.36819     14.42879         0.170539     -0.828433      0.012271
Ti       5.56747      9.37937      6.15242         0.891347     -0.321705     -0.636104
Ti       5.62643      9.37065     10.37121        -1.044432     -1.494374     -0.107320
Ti       9.29139      1.85232      2.16554         1.713275      0.552258     -0.635708
Ti       9.40560      1.84604     14.36508        -0.192063      0.127863      0.145001
Ti       9.33774     13.13199      2.05577        -0.149904     -0.028389     -0.166618
Ti       9.38486     13.11442     14.43411         0.264059      0.099838     -0.552198
Ti       9.44484      1.84693      6.25728         0.044393      0.458231     -0.589820
Ti       9.43223     13.09149      6.12141        -0.074971     -0.433600      0.104231
Ti       9.39701      1.80649     10.27013         0.102720      0.191600      0.104609
Ti       9.38261     13.06755     10.23546         0.271121     -0.130422      0.798151
Ti       9.32710      5.63983      2.12170         0.398503     -0.508443     -0.655394
Ti       9.38489      5.57240     14.29220         0.135750      0.400564      0.460060
Ti       9.36090      5.67381      6.11968        -0.617688     -0.713744      0.335448
Ti       9.44104      5.56272     10.15936        -1.478881      1.217467      0.832671
Ti       9.31572      9.40151      2.16484        -0.243943     -0.445334     -0.946894
Ti       9.44004      9.39844     14.41554        -0.168655     -1.019632     -0.834928
Ti       9.31675      9.34547      6.07543        -0.113707      0.642958      0.502421
Ti       9.31609      9.35759     10.36239         0.648043     -1.079441      1.103690
O       1.90196      1.90168      0.22022         0.124107      0.021606     -0.316548
O       1.98824      1.78369     12.58731        -0.376054      0.211727     -0.552303
O       1.85513     12.99798      0.17376         0.003974      0.260250     -0.332760
O       1.83473     13.15459     12.40246        -0.374730      0.026256      0.748348
O      13.13996      1.90220      0.11126         0.183969     -0.398470      0.235112
O      13.16015      1.82926     12.48650        -0.170862     -0.157513     -0.104493
O      13.11335     13.23609      0.14478         0.384971     -0.375169      0.530813
O      13.20662     13.11491     12.41584        -0.365069      0.101794      0.655426
O       1.83447      1.80844      4.31965        -0.140848      0.005568      0.696619
O       1.84769     13.07330      4.26538        -0.453452      0.289033      0.470431
O      13.12641      1.88097      4.22244         0.096158      0.092031      1.315500
O      13.03727     13.14243      4.23801         0.201550     -0.083649      0.326644
O       1.85139      1.88129      8.36896        -0.629648     -0.053293      1.087405
O       1.93793     13.08941      8.39076        -0.062367     -0.109192      0.364550
O      13.18122      1.88304      8.38333        -0.127997      0.033238      0.103612
O      13.00649     13.08298      8.37909         0.807538      0.244450      0.144599
O       1.79876      5.64397      0.15619         0.125373     -0.035787      0.879045
O       1.86812      5.56759     12.49294         0.445482      0.421275      0.148431
O      13.22490      5.54843      0.16242        -0.162940      0.299034     -0.250173
O      13.06678      5.72591     12.48884         0.244545     -0.475850      0.599953
O       1.83661      5.57844      4.26052         0.101651      0.312244      0.167741
O      13.10018      5.59807      4.25761         0.285431     -0.115399      0.266027
O       1.96443      5.58689      8.44557        -0.366830      0.124365     -0.948873
O      13.11269      5.58822      8.41077        -0.169747      0.032003     -0.577840
O       1.68663      9.37931      0.23214         0.539528      0.165110      0.171822
O       1.89374      9.36597     12.40038         0.079300     -0.116416      1.030255
O      13.02660      9.41406      0.24068         0.401424     -0.331261      0.074258
O      13.12559      9.44882     12.51711        -0.286896     -0.540568     -1.079989
O       1.66349      9.39477      4.23698         0.601243     -0.152555      0.922999
O      12.99403      9.34292      4.28273         0.402878      0.369670      0.692782
O       1.82551      9.38864      8.36886         0.278846     -0.232820     -0.271925
O      13.12911      9.42895      8.34191         0.067397     -0.293814      0.624329
O       5.62425      1.83203      0.18282        -0.223062      0.088776      0.728818
O       5.54889      1.83359     12.46444        -0.104054      0.026468     -0.002461
O       5.60851     13.09708      0.23330        -0.141323     -0.306018     -0.868604
O       5.75185     13.03929     12.45663        -0.574852      0.284917      0.836083
O       5.53569      1.92398      4.41931         0.391715     -0.683974      0.182925
O       5.58455     13.11150      4.29138         0.162336      0.018454      1.052320
O       5.79686      1.83072      8.39749        -0.375349      0.003219      0.728723
O       5.64117     13.10284      8.42853         0.108655     -0.382252      0.385678
O       5.55606      5.58440      0.20213         0.209874     -0.068994      0.754259
O       5.76993      5.68551     12.53489        -0.719380     -0.361549     -0.050626
O       5.52803      5.51992      4.23442         0.162247      0.341760      1.256190
O       5.67415      5.58989      8.42170        -0.563370     -0.119571     -0.281960
O       5.53277      9.45298      0.18239         0.375489     -0.268572      0.870329
O       5.51827      9.32665     12.56975         0.215159     -0.067624     -0.363585
O       5.68954      9.48847      4.28970        -0.392190     -0.902293      0.703929
O       5.68508      9.33077      8.47847        -0.084397      0.246712     -0.229205
O       9.27706      1.79763      0.22365         0.004875      0.530372      0.625191
O       9.42640      1.81823     12.51086         0.055264     -0.092013     -0.354215
O       9.20980     13.09261      0.12799         0.137386      0.047659      1.351056
O       9.36690     13.25169     12.53205         0.299000     -0.667100      0.761189
O       9.40409      1.85565      4.24923        -0.248888     -0.306883      1.019237
O       9.40145     13.12770      4.24617         0.095816     -0.011839      0.525691
O       9.31575      1.79285      8.40691         0.324302      0.256735     -0.401467
O       9.37909     13.06975      8.41023        -0.281921      0.288964     -0.473081
O       9.34401      5.50349      0.24625        -0.060875      0.051314      0.479102
O       9.24603      5.51323     12.43994         0.577083     -0.055881      0.784824
O       9.28412      5.70219      4.28651         0.078943     -0.164206     -0.268518
O       9.49022      5.57505      8.31295        -0.291205      0.074152      0.390360
O       9.38070      9.46330      0.18417        -0.091102     -0.524101      0.597077
O       9.51453      9.44303     12.52404        -0.212090     -0.126609      0.390944
O       9.40299      9.28407      4.24269        -0.390843      0.128643      0.091267
O       9.39237      9.30107      8.55029        -0.674030     -0.043350     -0.557778
O       3.74238      2.11020      2.47696         0.102703     -0.211591     -0.835117
O       3.76509      1.55402     14.57917        -0.158913     -0.093354      0.140165
O       3.73310     12.84294      2.29795        -0.828048     -0.243665     -0.127644
O       3.66014     13.29732     14.49117         1.206229      0.422701      0.124586
O      14.98641      1.67698      2.31380         0.479145     -0.165751     -0.111662
O       0.02976      2.11351     14.55292         0.566427     -0.127347      0.027610
O      14.99865     13.40472      2.11218        -0.605960     -0.163454      0.719027
O      14.98589     12.74415     14.51439        -0.701193      0.576441     -0.026697
O       3.66443      1.94693      6.54060         1.795682      0.152003     -0.164812
O       3.75169     12.96279      6.31221        -0.102489     -0.550665      0.403835
O      14.97047      1.63504      6.37418         0.819453      0.183367      0.191879
O      14.97295     13.26936      6.44516         0.039152     -0.020634     -0.106422
O       3.74777      2.04361     10.36394         0.644095      0.295716      0.123864
O       3.74410     12.92900     10.56928         0.027723     -0.492588     -0.445612
O      14.98064      1.63436     10.53197         1.540939      0.111327     -0.046374
O       0.00086     13.36478     10.38893         0.019860      0.261143      0.117697
O       3.65121      5.32908      2.22348         0.454614      0.375844      0.211114
O       3.81667      5.96450     14.67849        -1.098071     -0.192369     -0.648913
O      14.96440      5.75556      2.30613         0.225600      0.430405      0.266714
O       0.04988      5.31735     14.43546        -0.416459      0.245944      0.318234
O       3.71852      5.37609      6.38960         0.082388      0.553455      0.107021
O      14.97771      5.96003      6.41478         0.249106     -1.048628     -0.109631
O       3.78823      5.33610     10.47746         0.112869      0.100453      0.072519
O      14.98084      5.83039     10.50488         0.798074     -0.058714     -0.366251
O       3.63431      9.66159      2.38303         0.429790     -0.498080     -0.390432
O       3.74424      9.04431     14.67824        -0.458703      0.304803     -0.209818
O      14.90415      9.07052      2.32406         0.129297      0.503691     -0.146690
O      14.98183      9.52879     14.48580         0.420966      0.528750      0.360743
O       3.74093      9.50065      6.36359        -0.780261      0.065277      0.156857
O      14.96009      9.14193      6.40639        -0.118204      0.052952      0.007654
O       3.73037      9.66906     10.47823        -0.172799     -0.234829     -0.286763
O       0.01308      9.11800     10.41404        -0.989410     -0.428373      0.232673
O       7.48003      1.50065      2.37609        -1.062913      0.309225     -0.280077
O       7.49363      2.18585     14.41879         0.107481     -0.102757      0.573853
O       7.38922     13.39040      2.34204         2.029307      0.128384      0.090777
O       7.44335     12.73501     14.57847         0.865482      0.071912     -0.295663
O       7.50952      1.58585      6.37034         0.868539      0.030370     -0.104866
O       7.53420     13.33111      6.30255        -0.002739      0.303604      0.319661
O       7.54286      1.51850     10.58137        -0.555984      0.184051     -0.280429
O       7.54855     13.32000     10.53104        -0.581176      0.406083     -0.385768
O       7.42489      5.83460      2.26149         0.433219      0.344329      0.060197
O       7.53874      5.37893     14.64316        -0.526647     -0.554492     -0.137978
O       7.49123      5.75605      6.38842        -0.218047     -0.070883     -0.028995
O       7.49797      5.92936     10.38824         0.211976     -0.363280      0.126105
O       7.44966      9.05281      2.24742        -0.370770      0.056246     -0.020664
O       7.55139      9.63061     14.47593        -0.850161      0.135791      0.492935
O       7.51455      9.11261      6.38896        -0.619904      0.057074      0.083049
O       7.49581      8.94477     10.62027        -0.236564      0.673787     -0.322060
O      11.25788      2.17815      2.24343        -0.496423     -0.468236     -0.296528
O      11.24110      1.59419     14.61540         0.597003     -0.395804     -0.158464
O      11.15136     12.78550      2.06340         0.426239      0.184492      0.542736
O      11.24561     13.40229     14.72148         0.041976      0.056817     -0.921126
O      11.29493      2.16650      6.30599        -0.499072     -0.225081      0.390742
O      11.25016     12.85569      6.39050        -0.227976      0.415346     -0.218127
O      11.26452      2.07181     10.52629        -0.042950     -0.055621     -0.226343
O      11.26123     12.77521     10.31685        -0.165708      0.129953      0.934591
O      11.23428      5.38836      2.28477        -0.323428     -0.187837     -0.081560
O      11.25601      5.81308     14.71013         0.084887     -0.128521     -0.447482
O      11.23069      5.40881      6.25713         0.432103     -0.088172      0.432622
O      11.18569      5.27978     10.50104         1.727908      0.049810     -0.246275
O      11.18961      9.59958      2.28970        -0.306074      0.233641     -0.006791
O      11.28346      9.02481     14.58930        -0.139996      0.043161      0.172306
O      11.17173      9.45343      6.43668         0.476415      0.594814     -0.054573
O      11.24796      9.64122     10.39433         0.359089      0.026748      0.478532
O       1.63415      3.72479      2.24331        -0.457906      0.827263      0.094650
O       2.22770      3.81392     14.57814        -0.030420     -1.341027      0.005325
O       2.06176      0.03472      2.16799         0.241610     -0.905771      0.500131
O       1.61847     14.92394     14.67332        -0.115405      1.512234     -0.231631
O      13.34918      3.76353      2.12457         0.308366     -0.726591      0.568178
O      12.95478      3.68728     14.45572        -0.410888      1.037387      0.309245
O      12.86842     15.00806      2.19106        -0.258509      0.095171      0.196783
O      13.45231     15.00995     14.50726         0.106339     -0.763724     -0.140376
O       1.75684      3.74737      6.36441        -0.993836      0.123087      0.181640
O       1.93423     14.89205      6.43797         0.233231      1.260864     -0.050202
O      13.33405      3.78695      6.44393         0.346351     -0.384716     -0.106082
O      12.88502     15.00657      6.40480        -0.117485      0.019552     -0.164279
O       1.73599      3.73568     10.48716        -0.437668     -0.328714      0.067783
O       2.14538      0.00024     10.42741        -0.421030     -0.410693      0.161988
O      13.35836      3.75562     10.53196        -0.116876     -0.602594     -0.136914
O      12.95170     14.97310     10.44322        -0.456840      0.141592      0.005728
O       1.96746      7.49815      2.28822         0.569288     -0.346427      0.296466
O       1.60625      7.54680     14.57447        -0.055596     -1.153937     -0.207113
O      12.86479      7.48186      2.26272        -0.015521      0.006766     -0.003302
O      13.37113      7.44714     14.57944         0.217621      0.646107      0.008280
O       1.97226      7.48505      6.35298         0.872745      0.163425      0.038745
O      12.85482      7.53098      6.42058         0.290730     -1.004219     -0.104893
O       2.14171      7.47613     10.50533        -0.032825     -0.112003     -0.246935
O      12.87152      7.49147     10.37564        -0.165327     -0.321502      0.352076
O       1.50123     11.26373      2.23155        -0.033319     -0.256073      0.408924
O       2.12906     11.24237     14.43982        -0.182710     -0.419300      0.282969
O      13.27658     11.28522      2.24565         0.436073     -0.332992      0.221311
O      12.85457     11.26976     14.55405         0.013459     -0.214037     -0.062340
O       1.57559     11.19924      6.32249         0.375073      0.364620      0.266609
O      13.23060     11.28225      6.37133         0.364951     -1.026953     -0.262232
O       1.57046     11.23694     10.38862         0.244146      0.210771      0.131690
O      13.41411     11.19324     10.41364         0.184930      0.427209      0.300797
O       5.82333      3.69367      2.22364         0.143784     -0.524048      0.063166
O       5.28651      3.73061     14.47560        -0.070002      0.899678      0.455445
O       5.23998     14.92258      2.26611         0.144501      1.765868      0.082581
O       5.92148     14.97140     14.57683        -0.371537     -0.126102     -0.274776
O       5.80059      3.68004      6.47943        -0.461528      0.404055     -0.072060
O       5.41049     14.98151      6.50167         0.098007     -1.239476     -0.306974
O       5.85227      3.69509     10.48434         0.142142     -0.197066     -0.057675
O       5.35546     14.91859     10.47542         0.242757      1.266324     -0.073141
O       5.31760      7.48360      2.32227        -0.239283      0.236294      0.136126
O       5.91611      7.50571     14.67607         0.125961     -0.096076     -0.295094
O       5.46852      7.43870      6.43136        -0.308083      0.310117     -0.274630
O       5.27255      7.48191     10.40754        -0.005854     -0.539738      0.335302
O       5.86533     11.20864      2.34058        -0.181627      0.166678     -0.518930
O       5.25754     11.23745     14.44757         0.186498     -0.260525      0.587108
O       5.86391     11.20137      6.39679        -0.110880      0.596209      0.376449
O       5.84758     11.17336     10.49270         0.567387      0.977498      0.029446
O       9.04416      3.72908      2.40592         0.209974     -0.139480     -0.497690
O       9.72043      3.68372     14.50087        -0.518053      0.588325      0.368805
O       9.66449     14.95976      2.33305        -0.422867      0.180388     -0.362771
O       9.06663     14.98703     14.64679        -0.123148     -0.147022     -0.173121
O       9.20788      3.70758      6.27048        -0.408879      0.425017      0.389889
O       9.72657      0.01822      6.35149        -0.469285     -1.065902     -0.003372
O       9.02348      3.70588     10.31255         0.296111     -0.312263      0.502194
O       9.67928     14.93877     10.39404         0.025657      0.353145      0.228967
O       9.59710      7.48333      2.22945        -0.165064      0.183393     -0.045978
O       9.12783      7.43164     14.59077         0.216463      0.521678      0.041539
O       9.57712      7.49378      6.42914        -0.165524     -0.186043     -0.155815
O       9.72087      7.41501     10.64212        -0.482569      0.520390     -0.879334
O       8.97154     11.21607      2.32333         0.397174      0.882296     -0.293476
O       9.74759     11.21890     14.58950        -0.423353      0.918022     -0.424660
O       9.21239     11.21061      6.42876        -0.233065      0.145157     -0.219326
O       9.01748     11.22581     10.55810         0.504482     -0.383738     -0.305264
