  # total energy = -7878.77882474 
CRSYTAL
PRIMVEC
    15.2000000000000000    0.0000000000000000    0.0000000000000000
     0.0000000000000000   15.2000000000000000    0.0000000000000000
     0.0000000000000000    0.0000000000000000    17.000000000000000
PRESSURE
7.36268 7.03673 1.30701 -0.295813 0.069241 -0.033343
PRIMCOORD
320 1
Pb       3.82637      3.62241      4.12882         0.110400      0.578612      0.235714
Pb       3.80095      3.71746     16.86783        -0.132879      0.680743      0.325205
Pb       3.77499     15.14587      4.14069         0.888336      0.049552      0.681787
Pb       3.61271     15.19036     16.90542         0.729686     -0.288621     -0.095029
Pb       0.02350      3.58279      4.16642        -0.023063      0.638732      0.319278
Pb      15.15553      3.78377      0.05449         0.145248      0.473447     -0.206294
Pb      15.14860     15.11709      4.31571         0.091158     -0.233136     -0.086028
Pb      15.02862     15.19503      0.11117        -0.160487     -0.567813     -0.575660
Pb       3.75523      3.93316      8.58943         0.244787     -0.665820     -0.652589
Pb       3.80179     15.07064      8.62646        -0.249578      0.706978     -0.681512
Pb       0.13388      3.77629      8.53192        -0.287540      0.159837     -0.283344
Pb      15.14993     15.12145      8.31118         0.641666      0.514406     -0.003788
Pb       3.71629      3.82222     12.68094         0.298316      0.050943      0.405876
Pb       3.62836      0.10838     12.79722         0.459645     -0.361737      0.063088
Pb      15.06004      4.00291     12.69740        -0.159199     -0.679752     -0.394480
Pb      15.14917      0.16722     12.80924        -0.358644     -0.323636     -0.490456
Pb       3.82127      7.48454      4.16616         0.038121     -0.051635     -0.336004
Pb       3.70726      7.53345     16.81834         0.070829     -0.145545      0.604719
Pb       0.00928      7.62514      4.27287         0.127510     -0.224754     -0.592983
Pb      14.95151      7.55372      0.00769         0.837194     -0.199254      0.250241
Pb       3.85506      7.66960      8.49109         0.028613     -0.332690      0.458942
Pb       0.13549      7.60080      8.42601        -0.559898      0.049934      0.198046
Pb       3.75258      7.65127     12.74644         0.470791      0.322691     -0.300936
Pb       0.05473      7.67753     12.70110        -0.335183     -0.177709     -0.326897
Pb       3.84916     11.15825      4.16209         0.019967      0.587515      0.586083
Pb       3.77198     11.35775      0.10745        -0.111011     -0.140508     -0.604845
Pb       0.15396     11.29654      4.16252        -0.687407     -0.091126      0.385636
Pb      15.11358     11.36562      0.08261         0.056530      0.181159     -0.042873
Pb       3.84477     11.37426      8.56116        -0.339137     -0.406900     -0.110456
Pb       0.13900     11.46945      8.32619        -0.205508     -0.853580      0.636677
Pb       3.71972     11.45635     12.80405         0.664519     -0.417312      0.008860
Pb       0.03822     11.39643     12.91170        -0.101026      0.319336     -0.671625
Pb       7.53818      3.71508      4.34404        -0.082967     -0.167300     -0.688900
Pb       7.54791      3.71104     16.85453        -0.011182      0.396064      0.166360
Pb       7.61036     15.07590      4.22842        -0.283880      0.662487      0.207469
Pb       7.61463     15.18970     16.88933        -0.061923     -0.138897      0.109351
Pb       7.41527      3.74180      8.75521         0.204405      0.248423     -0.930116
Pb       7.64672     15.19563      8.56183        -0.362712      0.437782     -0.632605
Pb       7.66050      3.92274     12.79698        -0.181211     -0.230736     -0.259428
Pb       7.51984     15.06242     12.80576         0.213969      0.710143     -0.788669
Pb       7.67105      7.51844      4.09568        -0.431110     -0.580559      0.131796
Pb       7.69723      7.67604     16.96904        -0.987034     -0.179861      0.232462
Pb       7.50677      7.59884      8.51220         0.009250     -0.410004      0.389911
Pb       7.49041      7.66109     12.67289         0.246049     -0.346077      0.280879
Pb       7.61903     11.35157      4.36174        -0.341469      0.088192     -0.343740
Pb       7.56235     11.37844     16.89545         0.147631     -0.006498      0.223891
Pb       7.69267     11.38446      8.68027        -0.351487     -0.097200     -0.499729
Pb       7.60276     11.44255     12.77469        -0.286089     -0.217619     -0.543585
Pb      11.22167      3.75051      4.41729         0.202033      0.183911     -0.463570
Pb      11.25175      3.65516      0.00570         0.134799      0.719958     -0.549481
Pb      11.31839     15.14492      4.25043         0.118931      0.299017      0.391296
Pb      11.35388      0.11943      0.10060        -0.029241     -1.130574     -0.705075
Pb      11.43016      3.88102      8.52643        -0.350468      0.327620      0.115303
Pb      11.49740      0.02778      8.29251         0.005737     -0.181368      0.520056
Pb      11.33145      3.83908     12.71328         0.232438      0.334309     -0.291569
Pb      11.44831     15.18698     12.59967         0.124552      0.263135     -0.560469
Pb      11.28811      7.57163      4.28644         0.191761     -0.708684      0.186674
Pb      11.39139      7.61029     16.97442        -0.268567     -0.234596     -0.200230
Pb      11.36333      7.56345      8.61089         0.246921     -0.041462     -0.824700
Pb      11.48962      7.71781     12.79994        -0.345579     -0.596285     -0.565932
Pb      11.26345     11.27957      4.26817         0.509557      0.238894      0.469915
Pb      11.35320     11.47907     16.97692         0.310846     -0.114268      0.048046
Pb      11.48269     11.36769      8.36172         0.527562     -0.194480      0.524643
Pb      11.42054     11.57903     12.54605         0.235546     -0.794630      0.229819
Ti       1.87059      1.77055      2.15478         0.605537      1.340552     -0.217977
Ti       1.80519      1.87898     15.02052        -0.358610      0.239435     -0.781127
Ti       2.00019     13.25976      2.23655        -1.336635     -1.385125     -1.021069
Ti       1.86488     13.20037     15.07152         0.343058     -0.063912      0.153536
Ti      13.22612      1.83914      2.27529         0.035446     -0.151053      1.112854
Ti      13.21530      1.83995     14.90291         0.331124      0.520577     -0.045038
Ti      13.31674     13.16278      2.37349         0.471525      0.259876     -1.502313
Ti      13.27999     13.28550     14.96685        -0.198917     -0.012136      0.207592
Ti       1.96231      1.87350      6.44685        -0.292206     -0.762012      0.308273
Ti       2.04383     13.18256      6.41537        -0.948504      0.689824     -0.003008
Ti      13.29463      2.03379      6.53325         0.449578     -1.552133     -0.851832
Ti      13.38201     13.17722      6.34474         0.494957      1.073453      0.364094
Ti       1.79256      1.92222     10.73120         0.147504      0.414079     -0.417847
Ti       1.90247     13.33933     10.83175        -0.362919     -0.672902     -0.991552
Ti      13.25450      1.98100     10.57479         0.820115     -0.236564     -0.041789
Ti      13.45293     13.31826     10.56508        -0.941989      0.351044      0.997571
Ti       1.82619      5.62572      2.21438         0.561779      0.512436     -1.162553
Ti       1.82748      5.60535     14.87011         0.154756      0.666177      1.668463
Ti      13.23174      5.60038      2.32594         0.103454     -0.108938     -0.279590
Ti      13.25363      5.56314     15.03125        -1.295860      1.072166     -0.597014
Ti       1.95636      5.61441      6.39471        -0.525534      0.521064     -0.617748
Ti      13.37522      5.64598      6.44896        -1.338067      1.235648     -0.097298
Ti       1.88934      5.71227     10.72314        -0.367216      1.380375     -0.128236
Ti      13.29997      5.83571     10.64136        -0.266128     -0.786879      0.499924
Ti       1.92908      9.42601      2.20033        -0.762266     -1.022073     -1.289515
Ti       1.79720      9.40822     14.98232         0.653273      0.672061     -0.175432
Ti      13.20971      9.38331      2.22272         1.536556      0.428371     -0.024407
Ti      13.21910      9.51916     14.96291         0.009954     -0.162541      0.878924
Ti       1.91753      9.39120      6.47351         0.469082      0.075635     -0.579198
Ti      13.31954      9.39944      6.47242        -0.081710      0.067407     -0.333745
Ti       1.86853      9.56621     10.79738         0.643413     -0.586566     -1.084741
Ti      13.31486      9.58522     10.64171         0.112221     -0.708137     -1.692344
Ti       5.70567      1.88082      2.12861         0.941904     -1.110044      1.406708
Ti       5.67202      1.84078     14.87785        -0.353258      0.072215     -0.674878
Ti       5.74797     13.25255      2.19870         0.046197      0.093219      0.384886
Ti       5.68359     13.30000     14.97499        -0.608973     -0.518761      0.127442
Ti       5.60263      1.86963      6.55866         1.035700     -0.336184     -0.564361
Ti       5.78214     13.28456      6.57053        -1.100527      0.449989     -0.867144
Ti       5.61650      1.91388     10.80648         0.932803     -0.130023     -0.191132
Ti       5.70888     13.37594     10.70131        -0.039835     -0.580682      1.150267
Ti       5.67520      5.62770      2.10348         0.400693      0.409032     -0.039386
Ti       5.66168      5.66185     14.85502        -0.275803      0.334693     -0.270069
Ti       5.68516      5.65912      6.46642        -0.134663     -0.322457     -0.687643
Ti       5.64150      5.67824     10.76357         0.416399      1.169114      0.639317
Ti       5.79472      9.46287      2.21010        -0.919586     -0.599487      0.294264
Ti       5.63817      9.51251     14.94254         0.760595     -0.419697     -1.027027
Ti       5.72577      9.51707      6.53946        -1.405126     -0.539421     -0.174696
Ti       5.68590      9.58485     10.78120        -0.692923     -1.173668      0.227883
Ti       9.53350      1.83315      2.23943        -2.634839      0.536914      0.794019
Ti       9.47319      1.81477     14.83035        -0.225021      0.838267     -0.899805
Ti       9.51279     13.20145      2.22670        -0.416101      0.400390      0.789505
Ti       9.55401     13.26643     14.79900        -0.175048      0.183089      0.570523
Ti       9.45072      1.94453      6.61029        -0.766355     -0.769058     -1.465517
Ti       9.56518     13.26756      6.53857        -0.619831      0.504919     -0.269188
Ti       9.42541      1.89379     10.67574         0.062526     -0.447337      1.199408
Ti       9.58125     13.33665     10.58102         0.023604      0.188704      0.646944
Ti       9.51986      5.57110      2.10636        -1.653336      0.537269      1.891087
Ti       9.40474      5.73365     14.98754         0.292888     -0.183041     -1.757016
Ti       9.41121      5.63801      6.55437         0.746206      1.125444     -0.086372
Ti       9.48495      5.69966     10.72412         0.083131      0.449881      0.442068
Ti       9.55077      9.45983      2.24960        -2.098172     -0.355970     -1.432300
Ti       9.51658      9.55400     14.92459        -0.528446     -0.144917      0.519982
Ti       9.44559      9.47374      6.64170         0.523721     -1.256621     -0.186551
Ti       9.48646      9.49995     10.71351         0.483505     -0.877668     -0.096472
O       1.90167      1.73108      0.32642        -0.394911      0.343698      1.008679
O       1.79163      1.89857     13.17911         0.035459      0.168432      0.760825
O       1.97340     13.08986      0.32231        -0.208512      0.888515      1.730578
O       1.95455     13.04580     13.29375        -0.861578      0.606973     -0.792396
O      13.13364      1.79139      0.49087         0.387059     -0.039395     -0.025458
O      13.27593      1.94330     13.11691         0.022172     -0.261537      0.595757
O      13.46724     13.22405      0.47112        -0.314692      0.472665      1.064385
O      13.19093     13.29164     13.17898         0.217016     -0.076350      0.519604
O       1.94371      1.85918      4.63830         0.080460      0.071607      0.232382
O       1.94889     13.07815      4.65885         0.430396      0.878004     -0.555691
O      13.08440      1.96142      4.69599         0.761751     -0.132545      0.773565
O      13.41802     13.21850      4.54993        -0.366424     -0.168932      0.252409
O       1.76354      1.96270      8.94599         0.331625     -0.079703      0.387121
O       2.00228     13.24512      9.03026        -0.639452      0.211701      0.784068
O      13.30436      1.84569      8.74009         0.027826      0.147991      1.139502
O      13.47399     13.28642      8.79905        -0.160589      0.102272      0.092945
O       1.81126      5.59165      0.36103        -0.052513      0.205644      1.266393
O       1.71573      5.64180     13.11719         0.041236      0.123586     -0.354989
O      13.32791      5.54900      0.49847        -0.399403      0.137888      0.107376
O      13.17613      5.72539     13.21992         0.492381     -0.605096      1.059739
O       1.95718      5.66408      4.59273        -0.026217     -0.278555      0.511111
O      13.18694      5.52186      4.64805         0.284604      0.482404      0.476184
O       1.84655      5.76315      8.92960         0.201640     -0.334698      0.082280
O      13.29925      5.85599      8.89516         0.041193     -0.174539     -0.552654
O       1.93643      9.35430      0.36893         0.073833      0.328212      0.401171
O       1.77994      9.51043     13.07676        -0.058771      0.072994      2.049468
O      13.07041      9.30899      0.40572         0.571582      0.513880      0.789416
O      13.14369      9.54195     13.21778         0.591392     -0.017876     -0.900895
O       2.03408      9.30295      4.63641        -0.512311      0.455023      0.534938
O      13.35607      9.37920      4.63367        -0.344708      0.128349      0.446728
O       1.86783      9.53468      8.95192         0.239152     -0.193964      0.544355
O      13.31269      9.52476      8.79401        -0.062337     -0.139949      1.507126
O       5.74945      1.84720      0.39155        -0.186660      0.034638     -1.038629
O       5.69164      1.82398     13.07826        -0.379206     -0.090026      0.969644
O       5.71246     13.16360      0.42338         0.080915      0.423142      0.092492
O       5.72909     13.31098     13.18915         0.080689     -0.246077     -0.195202
O       5.59661      1.82985      4.73684         0.092153      0.018545      0.480515
O       5.65034     13.34068      4.76590         0.165413     -0.095826      0.697052
O       5.66811      2.02820      8.99858        -0.091562     -0.432239      0.452616
O       5.58905     13.43590      8.92071         0.647411     -0.746181      0.880707
O       5.72697      5.56951      0.30622        -0.370634     -0.106444      0.271688
O       5.67493      5.59646     13.02757         0.203830      0.285545      1.416185
O       5.72862      5.53193      4.62592        -0.172512      0.509004      1.302145
O       5.68281      5.67851      8.95801        -0.276988     -0.362967      0.237937
O       5.91299      9.41887      0.46553        -0.545570      0.305064     -0.822125
O       5.66033      9.52097     13.11860         0.581477      0.286073      0.920111
O       5.61186      9.49826      4.74480         0.393690     -0.248887      0.121270
O       5.68949      9.46885      8.98558        -0.115908      0.272926      0.107705
O       9.54228      1.75238      0.43297        -0.103771      0.235941     -0.182484
O       9.39725      1.88898     13.01869         0.685460     -0.381507      1.515872
O       9.42632     13.21295      0.48462         0.161043      0.250899     -0.099025
O       9.53763     13.24258     12.97383         0.184601      0.031637      1.168118
O       9.54145      1.81067      4.71507        -0.101812      0.481666      1.384346
O       9.49109     13.21990      4.73116         0.323266      0.003087      0.532802
O       9.53362      1.95767      8.90114        -0.351504     -0.294606     -0.290381
O       9.58822     13.25348      8.79381        -0.300575      0.195038      0.087244
O       9.45687      5.58463      0.38801        -0.052003     -0.081792     -2.049409
O       9.33459      5.67743     13.10361         0.544817     -0.108079      1.493945
O       9.44691      5.70635      4.71544        -0.060481     -0.135290      1.034274
O       9.44613      5.61259      8.93896         0.222509      0.253031      0.417228
O       9.46046      9.55350      0.43667         0.217194     -0.290357      0.940805
O       9.56952      9.49473     13.17564        -0.203828      0.469878     -0.806071
O       9.35093      9.46330      4.84494         0.391605     -0.305532     -0.222935
O       9.43993      9.33481      8.88792         0.164529      0.959241      1.061026
O       3.81497      1.81671      2.61107        -0.451268      0.011084     -0.829418
O       3.67969      1.88675     15.36987         1.040675     -0.799838     -0.527846
O       3.80450     13.23971      2.58967         0.506231     -0.275459     -0.279376
O       3.80034     13.28128     15.22831        -0.172747      0.233924      0.598309
O       0.01553      1.71718      2.65486        -0.536015      0.179973     -0.639563
O      15.10239      2.00882     15.34013         0.062600     -0.280083      0.073864
O       0.09826     13.18882      2.68091        -0.120403      0.870015     -0.383676
O      15.16226     13.12167     15.32226         0.220094      0.246016     -0.126091
O       3.80777      1.86527      6.96955        -1.433500     -0.107108     -0.122749
O       3.75323     13.29719      7.06717         1.120612      0.100971     -0.707357
O      15.18448      1.95301      6.75097         0.191626      0.206417     -0.173875
O       0.12381     13.23355      6.73361        -0.503907      0.175581      0.036571
O       3.74778      1.79191     11.15112        -0.845107      0.305917     -0.248645
O       3.76709     13.39507     11.18183         0.197482      0.226858     -0.198966
O      15.15889      2.05935     11.04123        -0.459054      0.248668      0.259456
O      15.17565     13.15036     11.21494         0.904692      0.101917     -0.121663
O       3.74183      5.64539      2.42760         0.769314     -0.336672      0.289905
O       3.71207      5.63848     15.04759         0.926751      0.092342      0.594628
O      15.16211      5.66763      2.63584        -0.294079     -0.325295      0.007090
O      15.11305      5.56974     15.36720        -0.234230     -0.148360     -0.388337
O       3.75594      5.70102      6.92917         0.695709      0.089629     -0.349269
O      15.19744      5.73134      6.79911         0.838158     -0.546621     -0.200268
O       3.73927      5.77600     11.17883         0.456316     -0.362787     -0.363123
O      15.18629      5.70241     11.03060         0.022293      0.029343      0.274443
O       3.77960      9.43372      2.47214         1.032192      0.254689      0.221407
O       3.82448      9.35827     15.13474        -1.487430     -0.063515      0.708171
O      15.13195      9.40925      2.49356         0.295178     -0.337650      0.101270
O      15.11910      9.44082     15.36404         0.461333     -0.054896     -0.365190
O       3.80236      9.39903      7.01243        -0.113292      0.558840     -0.691185
O       0.00795      9.45034      6.89100         0.894619      0.196410     -0.702568
O       3.83731      9.53078     11.18637        -1.016403     -0.339483     -0.297776
O      15.16579      9.48463     11.04173         0.005827      0.401570      0.434664
O       7.61294      1.71740      2.60078        -0.150718      0.486248     -0.186353
O       7.56537      1.80280     15.18133         0.413795     -0.007606      0.418899
O       7.62903     13.16207      2.70413        -0.211944      0.308620     -0.427086
O       7.60060     13.19327     15.15847         0.583937      0.120559      0.247657
O       7.53616      1.87182      6.85780         0.520107      0.311901      0.359762
O       7.62127     13.25957      6.84855         0.197540     -0.372667      0.332671
O       7.55869      1.83465     11.04247         0.281146      0.681706     -0.505241
O       7.66979     13.23801     11.01932        -1.325455     -0.068945     -0.315566
O       7.56228      5.75876      2.41581         0.202404     -0.286373      0.414074
O       7.52460      5.48162     15.25139        -0.190275      0.212076      0.063262
O       7.52375      5.67800      6.90667         0.178753     -0.138801     -0.293368
O       7.57129      5.70218     11.06785        -0.448910     -0.899867     -0.253613
O       7.61409      9.44231      2.65601         0.590527      0.020102      0.037554
O       7.61816      9.63205     15.29730        -0.375477     -0.063201     -0.228679
O       7.49279      9.55265      7.10932         1.755678     -0.095451     -0.868453
O       7.59401      9.58530     11.10479         0.546140      0.391521     -0.020408
O      11.31646      1.85160      2.61279         1.469944      0.095165     -0.138549
O      11.34145      1.69156     15.23363         0.018634      0.384610      0.246249
O      11.40663     13.04271      2.56164        -0.019702      0.628672      0.118893
O      11.38385     13.26586     15.37716         0.195614      0.349154     -0.298262
O      11.37511      1.87164      6.85538        -0.011532      0.295236     -0.055137
O      11.49981     13.30758      6.76701        -0.730208     -0.204804     -0.246254
O      11.49987      1.82412     11.02424        -1.640192     -0.116219     -0.014028
O      11.47861     13.31223     10.94629        -0.318970      0.766075     -0.066471
O      11.31031      5.56989      2.58863         1.500242     -0.071536      0.061919
O      11.20503      5.69203     15.28728         1.550952      0.031312      0.297521
O      11.39978      5.68220      6.90987        -0.236533     -0.193149     -0.257032
O      11.40878      5.80856     11.05520        -1.103618      0.035326     -0.070860
O      11.32977      9.48321      2.64247         1.212209      0.033500      0.418460
O      11.37949      9.48613     15.30720        -0.686277     -0.440367      0.357537
O      11.42856      9.45276      6.81221        -0.600861      0.292812     -0.028267
O      11.45955      9.38340     10.96398        -1.459982     -0.051261      0.220290
O       1.88075      3.69149      2.52750        -0.357764     -0.442226     -0.225220
O       1.96259      3.80643     15.43311        -0.962158     -0.829985     -0.660902
O       1.97416     15.12575      2.47332        -0.265456     -0.339954      0.102538
O       1.81223     15.15377     15.22296        -0.158932     -0.061210      0.381381
O      13.29891      3.67699      2.63162         0.177242     -0.008258     -0.342858
O      13.03735      3.70206     15.41783         0.386765      0.310082     -0.324462
O      13.23676     15.11670      2.67788         0.087831      0.453979     -0.242407
O      13.33518     15.17843     15.39211         0.234679     -0.158566     -0.173044
O       1.95332      3.77516      6.88319        -0.332135      0.109626     -0.119020
O       1.83752      0.02599      6.72648         0.356622     -0.807899      0.135771
O      13.29681      3.84700      6.98029        -0.040525     -0.543466     -0.321738
O      13.38348     15.12911      6.79161        -0.134334      0.439910     -0.550707
O       1.93700      3.90439     11.09617        -0.115246     -1.714158     -0.291652
O       1.65780      0.06698     11.14905         0.617231     -1.085904      0.024457
O      13.15461      3.90267     10.95187         0.443597     -1.006002      0.106004
O      13.43736      0.02055     11.08271        -0.101173     -0.077486     -0.451981
O       1.88785      7.56196      2.49924        -0.090794     -0.803516      0.439524
O       1.89487      7.53964     15.34120        -0.672984     -0.226712     -0.657775
O      13.22649      7.50861      2.51796        -0.344069      0.019826      0.325459
O      13.14994      7.52324     15.42635         0.478512     -0.259995     -0.495433
O       1.89360      7.52952      6.65777        -0.069430     -0.020536      0.738993
O      13.34007      7.58827      6.80429        -0.133475     -0.672670     -0.258331
O       1.93663      7.68277     11.14318        -0.565111     -1.100197     -0.024947
O      13.35859      7.60487     11.17246        -0.074741      1.167716     -0.052563
O       1.85462     11.28641      2.61900         0.615441      0.700084     -0.637320
O       1.98464     11.28300     15.44646        -0.336670     -0.457657     -0.569215
O      13.43793     11.32716      2.45292        -0.627833     -0.887513      0.371462
O      13.24153     11.37190     15.39966         0.054863     -0.044574     -0.181530
O       1.99290     11.28827      6.72165        -0.089422      0.569513      0.340173
O      13.41639     11.39963      6.81339        -0.585309     -0.567004     -0.301088
O       1.96778     11.37725     11.15161        -0.339292      1.417995      0.047219
O      13.18749     11.42479     10.90253         0.322248     -0.033738      0.313911
O       5.80464      3.69047      2.62309        -0.390752      0.725336     -0.466118
O       5.60263      3.65600     15.24813         0.149316      1.128865      0.091645
O       5.73816     15.13574      2.51477        -0.328952     -0.436797      0.103655
O       5.69697     15.18918     15.32364        -0.158540     -0.685519      0.150063
O       5.56699      3.75475      6.88133         0.444238      0.989976      0.063700
O       5.66300     15.17517      7.01773         0.129305     -0.173268     -0.213499
O       5.60842      3.79473     11.16192        -0.038724     -0.111662     -0.560928
O       5.71806      0.02357     11.17123        -0.072846     -1.239917     -0.447941
O       5.66821      7.53888      2.46637        -0.063935      0.156608      0.421827
O       5.72114      7.53269     15.16260         0.360319     -0.172965      0.368488
O       5.67906      7.57774      6.86524         0.081089     -0.301131     -0.182953
O       5.68506      7.61134     11.08231         0.082253     -0.239004      0.040461
O       5.69155     11.35866      2.70261         0.155618     -0.155641     -0.599531
O       5.56009     11.33319     15.47163         0.418073      0.723642     -0.613001
O       5.65415     11.38291      6.88468        -0.149436      0.497188      0.213975
O       5.58425     11.40559     11.10003         0.647685      2.052662     -0.312153
O       9.38398      3.78988      2.66648         0.123254     -1.457459     -0.331066
O       9.47540      3.73562     15.25825         0.156255     -0.906721      0.091359
O       9.52040     15.15743      2.65779         0.358690     -1.268525     -0.428246
O       9.51619     15.11943     15.30061        -0.592876     -0.117009     -0.230435
O       9.41623      3.81508      6.96159         0.377117     -0.749890     -0.568431
O       9.35351     15.18360      6.85861         1.022333     -0.247113      0.087249
O       9.55134      3.74021     11.13764        -0.146215      0.750426     -0.469320
O       9.40087     15.19751     11.02299         0.800691     -0.411051     -0.277466
O       9.56904      7.49079      2.53886        -0.245620      1.322003      0.180619
O       9.27477      7.65446     15.32626         0.910642     -0.712292     -0.391133
O       9.53025      7.54281      6.98073        -0.639316      0.366818     -0.526737
O       9.27709      7.58021     11.15273         1.128091      0.766428     -0.746748
O       9.50160     11.31146      2.77267        -0.409761     -0.042324     -0.474923
O       9.59967     11.44119     15.39975        -0.451543     -0.056270     -0.784176
O       9.56706     11.33478      6.85739        -0.380818      0.781270      0.248211
O       9.57848     11.41715     10.88933        -0.072981     -0.585461      0.130057
