  # total energy = -7883.05731388 
CRSYTAL
PRIMVEC
    15.3600000000000000    0.0000000000000000    0.0000000000000000
     0.0000000000000000   15.3600000000000000    0.0000000000000000
     0.0000000000000000    0.0000000000000000    17.440000000000000
PRESSURE
1.1307 1.04093 1.79098 0.23355 0.105274 -0.037183
PRIMCOORD
320 1
Pb       3.75465      3.83607      4.32488         0.694360      0.033283     -0.147895
Pb       3.83442      3.83162     17.36631         0.366575      0.565148      0.526376
Pb       3.81576      0.02310      4.27103        -0.211799     -0.032179     -0.161895
Pb       3.71770      0.04841      0.01760         0.138591     -0.556667     -0.535294
Pb      15.35970      3.75516      4.36979        -0.440150      0.014950     -0.411857
Pb       0.03927      3.95025     17.37832        -0.647474     -0.322814      0.687541
Pb      15.32603     15.29435      4.30112         0.224407      0.095075     -0.222766
Pb      15.24739     15.28403     17.43987         0.568215     -0.031005     -0.376770
Pb       3.77920      3.73600      8.76143        -0.005155      0.534460     -0.282420
Pb       3.89588     15.34580      8.64339        -0.366878     -0.153231      0.133254
Pb      15.32435      3.79683      8.69660        -0.544536     -0.114217     -0.691427
Pb      15.28930      0.04399      8.66336        -0.023285     -0.318825     -0.208747
Pb       3.65280      3.78134     13.04043         0.130832      0.583543      0.127494
Pb       3.73171     15.26623     13.03156         0.647442     -0.202132      0.227512
Pb      15.34887      3.80642     13.04799        -0.370437     -0.299171     -0.188975
Pb       0.04420      0.00270     13.01503        -0.426524      0.243711      0.442064
Pb       3.83133      7.63290      4.29006         0.215714      0.090634      0.356125
Pb       3.76812      7.61893     17.35167         0.245338      0.119129      0.434914
Pb       0.02412      7.73795      4.37806        -0.206475     -0.217531      0.070842
Pb      15.13543      7.70014     17.32465         1.549870      0.211516      0.532583
Pb       3.92281      7.64931      8.75819        -0.230727     -0.353150     -0.692806
Pb       0.07705      7.60030      8.68964        -0.348303      0.426904     -0.153746
Pb       3.76899      7.62245     12.97735         0.372575      0.280943     -0.073066
Pb       0.04504      7.62922     13.06815        -0.123539      0.440306     -0.764468
Pb       3.76197     11.55528      4.21945         0.465892     -0.118144      0.055656
Pb       3.95316     11.52683     17.42127        -0.324992      0.112468     -0.071345
Pb      15.28770     11.57469      4.33640         0.687708     -0.394182      0.432959
Pb      15.29670     11.57452     17.32360         0.543108     -0.354589     -0.147980
Pb       3.81064     11.54791      8.61244        -0.347715     -0.164490      0.378798
Pb      15.25356     11.38658      8.64621         0.576429      0.372337      0.427595
Pb       3.82696     11.53075     13.15180         0.059379      0.012302     -0.474959
Pb       0.01749     11.54788     13.13274         0.067184     -0.317409     -0.408676
Pb       7.71683      3.74037      4.42104        -0.235086      0.537737     -0.455940
Pb       7.64835      3.90947     17.34631        -0.135635      0.008223     -0.124967
Pb       7.73856      0.08691      4.28555        -0.336467     -0.375833     -0.141711
Pb       7.68536      0.05049     17.36624        -0.171297     -0.356135     -0.028644
Pb       7.71930      3.69840      8.76100        -0.228381      0.427165      0.070396
Pb       7.62705     15.17609      8.62823         0.225813      0.310174      0.208174
Pb       7.73338      3.83064     13.19444         0.160044      0.044741     -0.724633
Pb       7.56798      0.06896     13.09832         0.747671     -0.961865      0.002556
Pb       7.65400      7.58879      4.30297        -0.472102      0.373795      0.062055
Pb       7.70299      7.70124     17.39864        -0.120904     -0.065320     -0.310378
Pb       7.58758      7.69821      8.65684         0.071118      0.079714     -0.142780
Pb       7.51066      7.64940     12.98972         0.499803      0.082133      0.215466
Pb       7.67060     11.54497      4.33224        -0.242742     -0.201004     -0.166830
Pb       7.77018     11.50030      0.07837        -0.385348      0.041198     -0.806157
Pb       7.46852     11.48437      8.60274         0.833454     -0.021616     -0.425049
Pb       7.65413     11.40222     13.09004         0.113662      0.487226     -0.026608
Pb      11.43635      3.80552      4.34009         0.087704      0.248400     -0.044994
Pb      11.68237      3.84724     17.37334        -0.556662     -0.125697      0.265235
Pb      11.40144     15.29727      4.27728         0.361757      0.681650      0.331800
Pb      11.52816     15.31920     17.40711        -0.661626     -0.099122     -0.363385
Pb      11.39435      3.85497      8.71012         0.844794     -0.364289      0.049655
Pb      11.52953     15.25710      8.65583         0.053695      0.209820      0.219358
Pb      11.57765      3.78111     13.10765        -0.112550      0.117504     -0.574319
Pb      11.61416     15.35647     12.90448        -0.825725     -0.218157      0.768903
Pb      11.41433      7.76812      4.29060         1.000958     -0.371548      0.104639
Pb      11.59871      7.60255     17.39028        -0.680477      0.165520     -0.036850
Pb      11.41740      7.62447      8.71556         0.642017      0.422661      0.080954
Pb      11.47362      7.71278     12.94187        -0.033449     -0.352102      0.099696
Pb      11.55080     11.46305      4.38255         0.036780     -0.473379      0.043480
Pb      11.49080     11.46475     17.41698         0.248691      0.064775     -0.682414
Pb      11.59007     11.52573      8.64948        -0.185359     -0.434444     -0.013678
Pb      11.50044     11.44920     12.98648         0.001670      0.132899     -0.030513
Ti       1.88531      1.94256      2.23683        -0.354450     -0.616842      1.028993
Ti       1.83853      1.98759     15.47317        -0.208196     -1.132984     -0.614709
Ti       1.87958     13.40584      2.26318         0.406242      0.224503     -0.994485
Ti       1.98993     13.47003     15.39348        -0.646814     -0.860238      1.739403
Ti      13.37118      1.85894      2.25473         0.311177      0.587995      0.506561
Ti      13.38334      1.83224     15.44657         0.103769      0.498015      0.474994
Ti      13.28611     13.40362      2.30985         2.214193     -0.476478      1.836309
Ti      13.43755     13.39072     15.34923        -0.166540     -0.110233      1.055156
Ti       1.84358      1.84723      6.62440        -0.398178     -0.085485     -0.279471
Ti       1.89414     13.37564      6.68050        -0.815561      0.592110      1.347011
Ti      13.34196      1.82723      6.62077         0.594372      1.275474      1.763207
Ti      13.43769     13.37227      6.53321         0.584183      0.605709      1.882635
Ti       1.89945      1.89298     11.02811        -1.142478     -0.017184      0.177822
Ti       1.84550     13.46924     11.02253         1.710285     -0.937424      0.528520
Ti      13.38693      1.92530     11.00254         0.540945      0.249002     -1.518368
Ti      13.48888     13.42141     11.07505        -0.612539     -0.968546     -0.795826
Ti       1.88964      5.71782      2.34738        -0.097889      0.933766     -0.012715
Ti       1.85972      5.77020     15.39134         0.659800      0.580468      1.801165
Ti      13.42465      5.71176      2.43685        -0.366248      0.573903      0.507947
Ti      13.41467      5.72719     15.26484        -0.176239     -0.906611      0.811180
Ti       1.90115      5.72541      6.61606         0.550301      0.001129      0.731257
Ti      13.40234      5.80922      6.65777         0.029226     -1.287029      2.486912
Ti       1.88201      5.73403     11.03470         0.547262      0.254944     -0.210968
Ti      13.42890      5.70840     11.07247        -0.389803      0.409720      0.334056
Ti       2.02171      9.54600      2.31816        -0.844206      0.138584     -1.683135
Ti       2.01898      9.60028     15.39848        -0.876338      0.327919      0.472435
Ti      13.62073      9.55198      2.32202        -2.008157     -0.067827      1.243231
Ti      13.46449      9.50106     15.28625         0.014919      1.642220      0.407741
Ti       2.02779      9.55988      6.69395        -0.964238     -0.116878      0.372806
Ti      13.48895      9.54813      6.68022        -0.618872     -0.308393      0.005672
Ti       1.94189      9.66159     11.11810        -0.197575      0.402924     -0.582320
Ti      13.44264      9.59677     11.04379         0.406902      0.242546     -0.908394
Ti       5.73682      1.91680      2.28737         0.240982      0.987785      0.685546
Ti       5.69629      1.89321     15.28875         0.483090     -0.696927      2.035692
Ti       5.71240     13.45775      2.26014        -0.008447     -0.234612      0.973086
Ti       5.77713     13.40292     15.38308         0.484157     -0.239857      0.346605
Ti       5.68836      1.95091      6.67901         0.330626     -0.306325      1.052228
Ti       5.69400     13.47255      6.58160         1.014472     -0.404838     -0.788138
Ti       5.68530      1.95054     11.23887         1.179446     -1.088396     -0.516224
Ti       5.79559     13.35750     11.10596        -0.250191      1.011684      1.246628
Ti       5.72542      5.75644      2.33595         0.131588     -0.310979     -0.899303
Ti       5.71872      5.70337     15.28851         0.592162      0.943199      1.060539
Ti       5.72807      5.68075      6.76588        -0.554549      1.207293      0.410284
Ti       5.79636      5.63394     11.08639        -0.866310      1.189151     -0.812221
Ti       5.77385      9.60910      2.26443         0.830151     -0.149085      0.230415
Ti       5.79438      9.53551     15.42688         0.199997      0.694025      0.607320
Ti       5.75489      9.63359      6.51510         0.353040     -0.422813      0.082137
Ti       5.73569      9.55779     10.96440        -0.610038     -0.127377      0.893103
Ti       9.56408      1.95959      2.24940         0.292205     -0.070750      0.818305
Ti       9.54252      1.95970     15.34501         0.958007     -0.674200      1.307037
Ti       9.53894     13.43237      2.27390         0.091781      0.297871      0.205801
Ti       9.56287     13.45099     15.39713         0.304519     -0.508403      0.637564
Ti       9.54225      1.83469      6.78003         0.634323      0.796716      0.298765
Ti       9.60737     13.33946      6.59541        -0.082306      0.142450      1.523007
Ti       9.54994      1.91102     11.11506         0.382918     -0.612914      1.090920
Ti       9.59407     13.36721     11.05358         0.010367      0.675227      0.400565
Ti       9.50470      5.76275      2.28199         0.999096     -0.545474      1.227110
Ti       9.64872      5.74591     15.31110        -1.086070      1.042918     -0.282586
Ti       9.54047      5.81144      6.76247         1.020708     -1.287752     -0.085294
Ti       9.56271      5.73211     11.03682         0.638956      0.365940      1.868189
Ti       9.65415      9.63610      2.38857        -0.363118      0.312511      0.135729
Ti       9.62836      9.59232     15.38428         0.145371      0.019024      0.733123
Ti       9.58937      9.55662      6.60605         1.192045      0.697861      0.708677
Ti       9.52644      9.54502     10.91994         0.769524      0.065826     -0.752873
O       1.85730      1.90395      0.49708         0.523490     -0.023918     -0.780617
O       1.77057      2.10240     13.66234         0.382808     -0.392931      1.126293
O       1.90311     13.50451      0.46049         0.108111     -0.028853      0.572462
O       2.01279     13.42341     13.69112        -0.252523      0.366491     -2.104239
O      13.34160      1.93691      0.49755         0.073209     -0.229368      0.213020
O      13.42979      1.93027     13.71215        -0.041369     -0.146413     -0.746332
O      13.39560     13.31236      0.60228         0.196997      0.107415     -1.187857
O      13.56907     13.46263     13.62953        -0.340153     -0.148152     -0.866353
O       1.75665      1.83857      4.81385         0.298952      0.351775      0.876479
O       1.76169     13.35948      4.97441         0.723881      0.128069     -1.341252
O      13.46137      1.85199      4.89880         0.030954     -0.104773     -1.240666
O      13.43523     13.45533      4.78900         0.076181      0.071642     -0.339112
O       1.76415      1.85221      9.29369         0.755997      0.085665     -0.439692
O       1.98014     13.35275      9.30440        -0.043935      0.412170     -0.550634
O      13.43157      1.93493      9.18931        -0.062143     -0.137494      1.380532
O      13.36018     13.28233      9.30785         0.230269      0.428555      0.489938
O       1.86195      5.67798      0.59711         0.003882      0.410032     -0.467703
O       1.88250      5.75236     13.68559         0.018257     -0.364299     -1.738482
O      13.28405      5.75599      0.69026         0.474458      0.191422     -1.106422
O      13.37240      5.69452     13.54129         0.414533      0.177396      0.007017
O       2.12426      5.73488      4.85663        -0.758785     -0.153369      0.078356
O      13.46463      5.83847      4.97153        -0.310945     -0.021796     -1.912749
O       2.01271      5.76441      9.28149        -0.440127     -0.142441      0.395326
O      13.38559      5.70990      9.33939         0.295106     -0.046361     -0.300705
O       1.94436      9.51640      0.49829         0.025052     -0.074655      1.588731
O       2.02933      9.54119     13.62332         0.021508      0.007189      0.130543
O      13.54303      9.63387      0.57446         0.069054     -0.338918     -0.852609
O      13.44723      9.57554     13.53012         0.111222     -0.150676      0.300828
O       1.97957      9.47293      4.97012         0.112276      0.410423     -0.925760
O      13.50884      9.44080      4.92623        -0.011344      0.157701      0.159543
O       1.79722      9.77770      9.36282         0.854344     -0.469031     -0.196308
O      13.45215      9.69471      9.22979         0.467000     -0.042812      0.732931
O       5.81963      1.96585      0.53632        -0.303715     -0.019315      0.121358
O       5.92384      1.74135     13.57504        -0.972074      1.307874     -0.240724
O       5.61207     13.45330      0.53711         0.079351      0.527094     -0.552287
O       5.86526     13.33327     13.60656        -0.155461     -0.023952      0.388668
O       5.75763      1.95428      4.98259         0.249633     -0.089394     -1.314181
O       5.75336     13.39955      4.81576        -0.252301      0.164164      0.418010
O       5.51145      1.93020      9.52088         0.557557     -0.143007     -1.631193
O       5.79833     13.48415      9.33881         0.095681     -0.415199     -0.176524
O       5.79028      5.77608      0.56007         0.050322     -0.221436     -0.015920
O       5.84381      5.69035     13.54074        -0.247107      0.149536     -0.093510
O       5.66776      5.71582      5.04261         0.414720     -0.033441     -0.770889
O       5.57243      5.64113      9.29838         0.358912      0.345881      0.075801
O       5.90239      9.45950      0.47576        -0.367837      0.308814      0.675029
O       5.71507      9.62577     13.67536         0.246396     -0.097231     -0.153797
O       5.80857      9.73300      4.76065        -0.204390     -0.166080      0.222700
O       5.84321      9.60442      9.21433        -0.398169      0.014751     -0.541614
O       9.58609      1.90680      0.54603        -0.300949      0.280727     -1.270489
O       9.59818      1.93936     13.60905         0.022891     -0.135931     -0.551236
O       9.62906     13.48260      0.52999        -0.098015     -0.351578      0.301583
O       9.58764     13.28450     13.65882         0.149103      0.235689     -0.118939
O       9.56439      1.98267      5.04322        -0.239605     -0.187076     -0.730059
O       9.78000     13.53861      4.89145        -0.507652     -0.280448     -0.853909
O       9.66383      1.85783      9.41959        -0.604233      0.252028     -2.043256
O       9.53020     13.35586      9.28979        -0.015510     -0.003006      0.016679
O       9.71070      5.73508      0.56676        -0.457099      0.020108     -0.425212
O       9.56525      5.90166     13.54752         0.105706     -0.371350      0.416444
O       9.66476      5.73030      4.99450        -0.498651      0.030121      0.081219
O       9.66953      5.78183      9.33663        -0.150499     -0.032037     -1.529819
O       9.63509      9.61575      0.63134         0.028668      0.030009      0.100506
O       9.69129      9.55025     13.65744        -0.337405      0.228250     -0.901893
O       9.77839      9.62398      4.85950        -0.709788     -0.278361     -1.097097
O       9.61219      9.49992      9.13833        -0.667062      0.319326      0.616868
O       3.85675      1.94784      2.76271        -0.279470     -0.213309     -0.451697
O       3.79836      2.04202     15.83825         0.140776     -0.717997     -0.657111
O       3.79860     13.48824      2.75631         0.332436     -0.067896      0.031293
O       3.87078     13.46037     15.72228         0.211204     -0.224216      0.416531
O      15.34617      1.96608      2.53255        -0.205425     -0.221202      0.538477
O      15.33097      1.84250     15.90984         0.253215      0.421064     -0.221960
O       0.09633     13.40523      2.79385        -0.943931      0.036106     -0.408880
O      15.33706     13.51040     15.81042        -0.215208     -0.437540      0.143182
O       3.76147      1.83260      7.02836         0.373894      0.320927      0.146492
O       3.88904     13.45751      7.10231        -1.022731     -0.038720     -0.107168
O      15.29165      1.86399      7.11866         0.606885      0.027800     -0.282355
O      15.31802     13.49563      7.09746        -0.175327     -0.502402     -0.439722
O       3.81647      2.07791     11.48506        -0.867457     -0.614516      0.473078
O       3.91844     13.48653     11.55008        -0.315590     -0.087002     -0.314877
O      15.33024      1.79594     11.35082        -0.218961      0.202480      0.607906
O       0.04203     13.44755     11.48966        -0.710505      0.462068      0.002105
O       3.88211      5.79681      2.69290        -0.897170     -0.043565      0.244742
O       3.84152      5.78033     15.85147        -0.097091     -0.572665     -0.618863
O       0.01573      5.73065      2.84361        -0.114080      0.001483     -0.213158
O      15.33339      5.83840     15.80559        -0.565770     -0.680367     -0.335910
O       3.77675      5.75966      7.10750         0.531192     -0.105350      0.289312
O      15.35934      5.77681      7.09522        -0.085630     -0.057337     -0.114238
O       3.83104      5.62375     11.47955        -0.752375     -0.160047      0.299116
O       0.03524      5.68622     11.51045        -0.195711      0.480574     -0.121352
O       3.89840      9.56897      2.78767        -0.518633     -0.111821     -0.562082
O       3.87523      9.68101     15.95353         0.070217     -0.756890     -0.725888
O       0.01152      9.57561      2.86332         1.987843     -0.032846     -0.442102
O       0.04275      9.56888     15.73234        -0.747578     -0.345030     -0.017263
O       3.90812      9.60250      7.01548        -0.877926     -0.136939      0.406619
O       0.06817      9.63297      7.08048        -0.556146     -0.483908      0.004366
O       3.87507      9.53594     11.48249        -0.393317      0.477542     -0.180469
O       0.11156      9.68679     11.43329        -1.272171     -0.420999      0.771700
O       7.70434      2.02885      2.77924        -0.800066     -0.572459      0.049677
O       7.69264      1.90820     15.85003        -0.754228      0.413954     -0.560093
O       7.67397     13.39058      2.65702        -0.145899      0.214354      0.041999
O       7.64013     13.35983     15.95002         0.531551      0.766576     -0.369888
O       7.66671      1.91334      7.22219        -0.961546     -0.055221     -0.129343
O       7.61808     13.34964      6.95233         0.305422      0.141231      0.417456
O       7.69459      1.90068     11.55510        -0.019351     -0.134694     -0.181036
O       7.75076     13.53377     11.61171        -0.330977     -0.817396     -0.963258
O       7.58976      5.61537      2.72179         1.720942      0.413158      0.329682
O       7.69796      5.73882     15.73833        -0.169917     -0.047353      0.137391
O       7.71910      5.75175      7.27303        -1.340537     -0.114450     -0.441884
O       7.66641      5.90455     11.35173         0.189447     -0.032107      0.121310
O       7.67790      9.76005      2.81846         0.377897     -0.053647     -0.430345
O       7.72119      9.63140     15.83666        -0.072770     -0.283359     -0.171612
O       7.70776      9.61333      6.88672        -0.854399      0.028584      0.429478
O       7.58629      9.43213     11.30995         1.308768      0.244770      0.367901
O      11.41447      1.92666      2.70813         1.780941     -0.376625      0.073596
O      11.48697      1.88848     15.92680        -0.104932      0.094268     -0.731494
O      11.53426     13.56069      2.70791        -1.128385     -0.732432     -0.188514
O      11.52280     13.38042     15.88455        -0.086726      0.254515     -0.446664
O      11.48708      1.86819      7.09860        -0.582576     -0.121476     -0.044048
O      11.56045     13.44025      7.11777        -0.851681     -0.123834     -0.561327
O      11.52420      2.00134     11.43866         0.155491      0.164288      0.522553
O      11.63740     13.24851     11.48910        -1.475905      0.536078      0.004286
O      11.51190      5.80120      2.79703        -0.871312      0.122318      0.017489
O      11.49394      5.74076     15.80386         0.988459      0.146379     -0.196599
O      11.49382      5.66887      7.31244        -0.262329      0.871693     -1.215279
O      11.54802      5.70551     11.58597        -0.307528     -0.062332     -0.568232
O      11.63225      9.69348      2.76085        -1.361438     -0.785783     -0.245213
O      11.58440      9.63802     15.75460         0.074660     -0.280101      0.227376
O      11.54757      9.63979      6.92889        -0.201409     -0.335351      0.552610
O      11.56682      9.69022     11.09661        -0.445934     -0.243602      1.330297
O       1.93639      3.87083      2.65221         0.158390     -1.140799      0.501467
O       1.88003      3.88360     16.00022        -0.064973     -0.457768     -1.079559
O       2.03151     15.35291      2.63144        -0.603374      0.537177      0.082136
O       1.89574     15.29337     15.74539         0.372783      2.441344      0.393763
O      13.42381      3.81249      2.69361        -0.142564     -0.608854      0.415093
O      13.44912      3.84067     15.75091        -0.017074      0.313979      0.158583
O      13.50760     15.27906      2.71001        -0.213818      1.082891     -0.508693
O      13.38151     15.32292     15.77859         0.063696     -0.055489      0.358231
O       1.86570      3.78377      7.10415         0.028207     -0.054965     -0.443017
O       1.88037     15.29410      7.06727         0.185342      0.750125      0.092795
O      13.41807      3.84113      6.99459         0.161664     -0.235773      0.096627
O      13.41661     15.30708      7.15689        -0.172955     -0.076051     -0.591936
O       1.77737      3.75967     11.45316         0.586545      0.755414      0.042274
O       1.90807      0.01401     11.56424         0.553020      0.056451     -0.378168
O      13.49371      3.80673     11.50295        -0.003902     -0.431007     -0.064656
O      13.34043      0.00369     11.44447         0.636193     -0.229172     -0.399659
O       1.96451      7.67619      2.78169        -0.111828     -0.057053     -0.227636
O       1.91324      7.62099     15.80991         0.265780      0.555236     -0.092134
O      13.45883      7.68492      2.82288         0.168671     -0.207767     -0.503556
O      13.42964      7.59637     15.71986        -0.322627      0.817255      0.038050
O       1.88901      7.63679      7.10841         0.334502      0.322731      0.101710
O      13.38990      7.69044      7.23273         0.326695     -0.329032     -0.379913
O       1.91461      7.69418     11.41549         0.040381     -0.893361      0.192063
O      13.52367      7.63604     11.44938        -0.028546      0.791794     -0.021915
O       2.02375     11.48382      2.55529        -0.237698     -0.111746      0.531664
O       1.91599     11.51074     15.68040        -0.027870     -0.312186      0.390452
O      13.56487     11.42637      2.93007        -1.088280      1.352362     -1.228130
O      13.47141     11.49473     15.83477         0.078363     -0.340472     -0.545153
O       1.89896     11.51221      7.17242         0.622930     -0.094253     -0.521616
O      13.42415     11.50569      6.95496         0.144545      0.280230     -0.049348
O       1.96232     11.65892     11.56660         0.282869     -1.147965      0.062429
O      13.53321     11.51306     11.56516         0.296594     -0.321099     -0.144946
O       5.72162      3.86132      2.81220        -0.146503     -0.790094     -0.165907
O       5.74736      3.84794     15.71511         0.195885     -0.611314     -0.008545
O       5.77616      0.01972      2.79151         0.116772      0.377348     -0.353803
O       5.74804     15.35235     15.71306         0.010701      0.892782      0.190753
O       5.69694      3.82577      7.11074         0.137640     -0.670210      0.360874
O       5.74330      0.01121      7.08093         0.123894     -0.072635      0.052671
O       5.91075      3.84357     11.48067        -0.133104     -0.496505      0.656419
O       5.79986     15.35521     11.60457        -0.500956     -0.095953     -0.449035
O       5.85682      7.72631      2.73363         0.042376     -0.657292      0.119826
O       5.76879      7.66836     15.70293         0.013990     -0.550240      0.076153
O       5.74395      7.72928      7.05232         0.172716     -0.615995      0.273841
O       5.63589      7.62666     11.46975         0.173618      0.033295     -0.248247
O       5.65062     11.53750      2.50954         0.074759      0.179966      0.372044
O       5.83603     11.53916     15.91379        -0.528283     -0.553693     -0.197167
O       5.63021     11.50016      6.97955         0.785604      0.547395      0.369955
O       5.75825     11.44640     11.51310         0.429605      0.467222     -0.594502
O       9.66847      3.82183      2.80563        -0.627548      0.903477     -0.310504
O       9.63010      3.85112     15.57462        -0.213612     -0.147165      0.486876
O       9.59144      0.02289      2.71471        -0.452656     -0.273808      0.158295
O       9.54503     15.32947     15.94314         0.313673      0.448528     -0.839405
O       9.50144      3.84233      7.27176         0.390601     -0.520047     -0.382842
O       9.46387     15.29725      7.04114         0.471513     -0.231649      0.255912
O       9.48835      3.89192     11.47171         0.207116     -0.491440      0.132667
O       9.82769     15.32134     11.38650        -0.530925     -0.420946      0.131697
O       9.30452      7.70991      2.66742         1.320386     -0.415758     -0.009293
O       9.64036      7.70450     15.77711         0.136628     -0.391278      0.405520
O       9.57921      7.66551      7.08324         0.101373      0.199316     -0.005570
O       9.75730      7.70368     11.40292        -0.546609      0.190743     -0.176058
O       9.70180     11.58681      2.81253        -0.156155     -0.229184     -0.347314
O       9.57011     11.54579     15.86797         0.256305     -0.638864      0.132629
O       9.59280     11.45381      6.93213         0.004893      1.122022      0.200000
O       9.53873     11.41001     11.43399        -0.119325      0.338355      0.014478
