  # total energy = -7882.86013120 
CRSYTAL
PRIMVEC
    15.3600000000000000    0.0000000000000000    0.0000000000000000
     0.0000000000000000   15.3600000000000000    0.0000000000000000
     0.0000000000000000    0.0000000000000000    17.440000000000000
PRESSURE
1.70228 2.09867 -1.69241 -0.071406 0.006467 -0.050625
PRIMCOORD
320 1
Pb       3.79511      3.82966      4.35380         0.243369     -0.052464     -0.147973
Pb       3.86219      3.83165     17.38066         0.003535      0.051783     -0.093699
Pb       3.81581      0.02100      4.28215        -0.123671      0.313900     -0.086912
Pb       3.68453      0.03029     17.41746         0.408546      0.049723      0.251192
Pb       0.01859      3.73336      4.35941        -0.308083     -0.029839     -0.008140
Pb       0.06516      3.97406     17.38199        -0.579094     -0.606107      0.090011
Pb       0.00861     15.31877      4.29521         0.076116      0.240748     -0.029230
Pb      15.23847     15.28200     17.41318         0.467417      0.762199      0.227953
Pb       3.76521      3.72836      8.75644         0.177992      0.183469     -0.250149
Pb       3.91149      0.00302      8.59014        -0.697034     -0.124282      1.097776
Pb      15.27505      3.84958      8.67322         0.073705     -0.030547     -0.095214
Pb      15.24817      0.03842      8.66242         0.480865     -0.472455      0.271652
Pb       3.66181      3.74635     13.06297         0.408710      0.300894      0.170806
Pb       3.72418     15.28121     12.99094        -0.112405      0.530950      0.502605
Pb       0.01381      3.80146     13.05209        -0.126866     -0.125957      0.215195
Pb       0.03242     15.34548     13.02965        -0.191572      0.230314      0.330796
Pb       3.84289      7.64182      4.31200         0.191742     -0.246388     -0.223543
Pb       3.77835      7.58776     17.34760         0.168632      0.556145      0.189137
Pb       0.05657      7.78414      4.36619        -0.195202     -0.557444      0.448465
Pb      15.11680      7.69458     17.33207         0.929279     -0.342324      0.568934
Pb       3.90033      7.67524      8.72738         0.024989     -0.112620     -0.629257
Pb       0.08330      7.59444      8.65228        -0.486537      0.105955      0.783213
Pb       3.77628      7.58990     12.95292        -0.104981      0.251142      1.063852
Pb       0.03679      7.62630     13.08379        -0.329846      0.044968      0.011239
Pb       3.77701     11.58309      4.21055         0.125301     -0.511558      0.368726
Pb       3.97159     11.56062     17.41022        -0.017378     -0.366914      0.064546
Pb      15.31025     11.57425      4.35327         0.592748      0.307196      0.200670
Pb      15.29275     11.59101     17.28756        -0.153618     -0.155326      0.715339
Pb       3.84284     11.54640      8.60548        -0.177379      0.106164      0.252205
Pb      15.24059     11.38890      8.65498         0.656042      0.513604      0.294371
Pb       3.85520     11.51908     13.16354        -0.192306     -0.397061     -0.310269
Pb       0.07046     11.57316     13.10671        -0.289961     -0.418663     -0.144458
Pb       7.72536      3.73035      4.40174        -0.394768      0.215447      0.296739
Pb       7.65415      3.90882     17.35667         0.332902     -0.088851     -0.019777
Pb       7.73744      0.06693      4.31956        -0.144691      0.112334     -0.311792
Pb       7.65491      0.07075     17.33215        -0.322353     -0.116725      0.424686
Pb       7.70267      3.73625      8.76098        -0.326594     -0.205466      0.394694
Pb       7.63593     15.16706      8.63285         0.073775      0.757697      1.325842
Pb       7.78322      3.84831     13.17455        -0.400816      0.323004     -0.468627
Pb       7.58608      0.10998     13.06809         0.393458     -0.476596      0.347235
Pb       7.67643      7.55943      4.29652         0.075460     -0.022819      0.306541
Pb       7.66851      7.74754     17.38136         0.114263     -0.961653      0.244351
Pb       7.61965      7.70042      8.63801        -0.066577     -0.157727      0.698403
Pb       7.50990      7.67180     12.99178         0.942822     -0.060562      0.496056
Pb       7.66535     11.55522      4.31766         0.164597     -0.146235     -0.059026
Pb       7.76737     11.49484      0.05506         0.000638      0.512071     -0.227513
Pb       7.45241     11.51896      8.54984         0.643164      0.054343      1.249744
Pb       7.68726     11.41996     13.07441        -0.019221      0.019910     -0.532190
Pb      11.43660      3.80262      4.30699         0.070493      0.229905      0.606967
Pb      11.73062      3.86163     17.39608        -0.882455     -0.047754      0.516575
Pb      11.42901     15.26417      4.28291         0.110785      0.068790      0.251922
Pb      11.46455     15.29978     17.42260        -0.160058      0.206550      0.203615
Pb      11.36792      3.87200      8.69598         0.316202     -0.236914      0.591420
Pb      11.54322     15.28599      8.66724        -0.684602     -0.182039      0.433779
Pb      11.59925      3.75024     13.10762        -0.256557      0.276514     -0.070932
Pb      11.62024      0.00305     12.90738        -0.363686     -0.040891      1.010117
Pb      11.43550      7.72972      4.28170        -0.011331     -0.118804      0.334521
Pb      11.59695      7.61702     17.37234        -0.573370     -0.014283      0.721245
Pb      11.43470      7.65120      8.71263         0.380146      0.051539      0.401421
Pb      11.42725      7.69665     12.98604         0.798951      0.119010      0.283958
Pb      11.57670     11.44615      4.33603        -0.559025      0.551801      0.315247
Pb      11.45604     11.43294     17.37894         0.360892      0.179992      0.618054
Pb      11.62722     11.50886      8.59870        -0.534983     -0.010047      0.502845
Pb      11.52296     11.45221     12.97913        -0.051117     -0.512004      0.540380
Ti       1.84340      1.88882      2.28081        -0.096744     -0.385684     -0.515228
Ti       1.86159      1.95696     15.49089        -1.000175      0.166121     -0.309363
Ti       1.90806     13.36589      2.20687        -0.705901      1.068541      0.585210
Ti       1.91093     13.45057     15.46407         0.191209      0.589646     -1.582598
Ti      13.31696      1.89606      2.29626         2.083192      0.469853     -0.786661
Ti      13.37639      1.82223     15.52138         0.854641      1.290516     -1.009066
Ti      13.41733     13.42967      2.38889        -0.913194      0.537551     -1.825673
Ti      13.37366     13.41629     15.39189         0.117355     -0.316239     -0.803373
Ti       1.84095      1.86153      6.64338         0.325283      0.196387      0.740113
Ti       1.82333     13.42316      6.75797        -0.090687      0.022682     -1.661301
Ti      13.37998      1.86688      6.68471         0.043252      0.156663     -1.077878
Ti      13.38977     13.38927      6.64844         0.365497      0.281426     -0.510210
Ti       1.83128      1.90318     11.02637        -0.192736     -0.496610     -0.074877
Ti       1.88425     13.38019     11.08436         0.207430      0.133205     -1.587767
Ti      13.38119      1.90481     10.97698         0.194568     -0.121081      1.226989
Ti      13.39282     13.36227     11.13872         0.519689     -0.416188     -1.447441
Ti       1.82406      5.78400      2.35592         0.726736     -1.128516     -1.570706
Ti       1.92211      5.78984     15.46847        -0.870448     -0.145998     -1.761384
Ti      13.44284      5.72908      2.55592        -0.574310     -0.255151     -1.364836
Ti      13.37666      5.72108     15.33173         1.431101     -0.349545     -1.189301
Ti       1.89122      5.72305      6.75022         0.980641     -0.303412      0.281407
Ti      13.37631      5.74360      6.71878         0.310388     -0.103325     -1.704583
Ti       1.88119      5.77402     11.05495        -0.415171     -0.569257     -0.314104
Ti      13.45622      5.71576     11.08335        -0.474881      0.356355     -1.224406
Ti       1.95904      9.55896      2.27924         1.047107      0.064325     -0.051207
Ti       1.90495      9.62551     15.47849         1.469288     -0.692355     -1.602087
Ti      13.57876      9.59771      2.41119        -0.849160      0.033562     -1.366946
Ti      13.48391      9.55900     15.31424        -0.921924      0.806628     -0.841718
Ti       1.99071      9.57004      6.69763         0.010898      0.232735     -0.414301
Ti      13.50571      9.49756      6.73785        -0.695132     -0.270145     -0.432918
Ti       1.95273      9.61183     11.10416        -0.875431     -0.724887     -0.117408
Ti      13.53355      9.59482     11.06314        -0.565288     -0.965291      0.197197
Ti       5.76103      1.95557      2.36589        -0.268668     -0.562507     -0.195697
Ti       5.65968      1.86060     15.41400         1.272049      0.608889     -1.632596
Ti       5.67650     13.45788      2.34436         1.431089      0.646646     -0.880534
Ti       5.77408     13.40104     15.35337         0.453875      0.356471      0.737654
Ti       5.73286      1.91423      6.73624        -0.445294      0.097481     -1.667517
Ti       5.72496     13.47554      6.57372        -1.025481     -0.315789      0.366916
Ti       5.72113      1.91576     11.22916        -0.318283      0.806137     -1.842692
Ti       5.72822     13.47618     11.18314         0.615009     -1.151911     -1.757529
Ti       5.76045      5.68448      2.32005         0.060056      0.325251      0.469731
Ti       5.74411      5.72886     15.33562         0.522114     -0.479261     -0.095825
Ti       5.80085      5.65216      6.76677        -1.196094      0.215975     -0.930257
Ti       5.71710      5.76536     11.02961         0.784945     -1.777287      0.053368
Ti       5.86261      9.58743      2.27716        -1.229811     -0.262557      0.003534
Ti       5.82021      9.56538     15.48917        -1.194283     -0.192574     -0.413853
Ti       5.86348      9.56615      6.53874        -1.669160     -0.201603      1.269556
Ti       5.70217      9.55664     11.02971         0.771098      0.924662     -1.495305
Ti       9.62784      1.97190      2.23755        -0.924451     -0.784516      0.007404
Ti       9.54261      1.96371     15.38952        -0.024113      0.741064     -0.575197
Ti       9.54703     13.40746      2.37205         0.418324      0.247186      0.792398
Ti       9.61506     13.48724     15.42837        -0.911086     -0.266222     -0.103975
Ti       9.56993      1.86504      6.79636        -0.791204      0.124876     -0.794284
Ti       9.56416     13.40418      6.68202         0.454640      0.196491     -1.678485
Ti       9.52169      1.85957     11.14425         0.462793      0.835053     -1.714863
Ti       9.59742     13.34636     11.10904        -1.198952      1.023158     -1.660858
Ti       9.53071      5.68682      2.34749         0.457943      0.919286     -1.771308
Ti       9.65094      5.80682     15.39109        -0.876532     -1.262771      0.871670
Ti       9.58365      5.77120      6.81774        -0.792603     -0.464204     -0.269126
Ti       9.63041      5.79729     11.05916        -0.490911     -1.296611     -1.616697
Ti       9.63599      9.64431      2.41453        -0.212787     -0.494093     -0.602497
Ti       9.64460      9.58504     15.43862         0.073440      0.033533     -1.194778
Ti       9.64193      9.62675      6.73521        -0.226526     -0.308160     -1.156101
Ti       9.63997      9.58435     10.89980        -0.444410      0.050307     -0.131072
O       1.82636      1.83549      0.48151         0.316888      0.442181      0.440303
O       1.80439      1.86519     13.72779         0.121282      0.250049     -0.797981
O       1.88678     13.41352      0.43693         0.039406      0.144911     -0.368269
O       2.04434     13.40911     13.59045        -0.579781      0.098036      1.601982
O      13.40330      2.09384      0.45848        -0.052279     -0.907584      1.155579
O      13.35016      1.74164     13.74327         0.184095      0.419968     -0.067917
O      13.28018     13.34673      0.55281         0.591770      0.248198      0.709643
O      13.42864     13.35118     13.59842        -0.221316      0.202707      0.384668
O       1.79281      1.79702      4.88132         0.185739      0.268334     -0.034304
O       1.72016     13.47028      4.92328         0.464029     -0.327661      0.811056
O      13.42727      1.76917      4.91005        -0.303208      0.281582      0.914907
O      13.34111     13.41842      4.87102         0.340321      0.204645     -0.111565
O       1.81626      1.88930      9.28164        -0.061362      0.005306     -0.148718
O       1.92529     13.29682      9.28995        -0.227432      0.074508      0.555398
O      13.37121      1.82613      9.24959         0.123311      0.162163     -0.959067
O      13.37287     13.27692      9.33733        -0.079256     -0.008611      0.325142
O       1.85445      5.74597      0.50113         0.153438      0.019648      1.089843
O       1.87147      5.70245     13.63979        -0.007354      0.134667      0.541812
O      13.36048      5.70530      0.71126         0.340379      0.337228      0.985373
O      13.37523      5.77585     13.55221         0.137030     -0.288499      0.293096
O       2.03915      5.66959      5.00204        -0.390219      0.531430     -0.356116
O      13.49287      5.87422      4.88541        -0.547750     -0.155826      0.911369
O       1.80417      5.79062      9.28762         0.203110     -0.092200      0.017785
O      13.38942      5.67763      9.23753         0.126710     -0.129311      1.159035
O       1.91353      9.55345      0.55174        -0.206402      0.052792     -1.170244
O       2.13119      9.57850     13.68285        -0.628512      0.135575      0.867293
O      13.50914      9.57836      0.60241         0.221371      0.307460      0.960019
O      13.48665      9.66531     13.55832        -0.290949     -0.400736      0.432911
O       1.94587      9.50795      4.91218         0.154415      0.044294      0.207508
O      13.56478      9.43332      4.96379        -0.114324      0.268085     -0.484042
O       1.88083      9.64017      9.35909         0.036468     -0.198883     -0.585264
O      13.47454      9.58876      9.27866         0.040976      0.299129     -0.174833
O       5.87464      1.92135      0.60613        -0.728161      0.127686     -0.666100
O       5.71217      1.78139     13.58119         0.025221      0.415172      0.575929
O       5.67123     13.47965      0.55429         0.020788     -0.054727      0.717642
O       5.76617     13.34079     13.58311        -0.051912      0.134216     -0.129070
O       5.70948      2.04625      4.91271        -0.145119     -0.588046      0.795709
O       5.62757     13.49521      4.83198         0.311382     -0.229581     -0.088283
O       5.69303      1.85189      9.40192        -0.276344      0.146199      0.879230
O       5.78131     13.24504      9.35500        -0.288908      0.778981      0.739445
O       5.82317      5.69771      0.56286        -0.537926     -0.204358     -0.056633
O       5.85060      5.67336     13.58781        -0.372783      0.645044     -0.169474
O       5.78182      5.71371      4.95807        -0.472992     -0.109783      0.580782
O       5.75206      5.72956      9.25498        -0.138242      0.096124      0.707584
O       5.77145      9.56686      0.49202         0.341495      0.093732      0.357100
O       5.83475      9.57097     13.70997         0.040806      0.012369     -0.250147
O       5.84826      9.71726      4.81322        -0.380614     -0.536772     -0.505762
O       5.77281      9.45348      9.19872        -0.197926      0.578958      1.612852
O       9.70635      1.95634      0.50357        -0.465406     -0.116789     -0.070827
O       9.38371      1.96715     13.54017         0.830156     -0.269540      1.234630
O       9.54839     13.34881      0.63109         0.259092      0.248199     -1.036776
O       9.72655     13.43478     13.70358        -0.554655     -0.248194     -0.471857
O       9.40699      1.99226      4.97690         0.723374     -0.430482      0.960275
O       9.69252     13.51854      4.82418        -0.681064     -0.257276      1.900759
O       9.51551      1.86280      9.28497        -0.002291      0.028300      1.089900
O       9.54086     13.45772      9.30984         0.197772     -0.285945      0.572728
O       9.61327      5.72349      0.55391        -0.193160      0.246327      0.694680
O       9.59976      5.70252     13.66134         0.248977      0.356491     -0.740928
O       9.44281      5.64681      5.07216         0.351638      0.380865     -0.575083
O       9.65195      5.72955      9.11652         0.009455     -0.098960      2.216282
O       9.57944      9.68629      0.62884         0.112481     -0.124218     -0.161234
O       9.60558      9.52520     13.65665        -0.010375      0.449914      0.779062
O       9.59397      9.52466      4.90185         0.044286      0.209625      0.986996
O       9.56124      9.54301      9.11906         0.334607      0.299649      0.357709
O       3.74011      1.92575      2.67556         0.482173     -0.441191      0.128284
O       3.82410      1.90834     15.74616         0.061417      0.193820      0.680774
O       3.81697     13.48004      2.74533        -0.790995      0.092739     -0.257477
O       3.81263     13.51616     15.88765        -0.044581     -0.282748     -0.559774
O      15.24988      1.95981      2.79170         0.086190     -0.560627     -0.395019
O      15.35083      1.99813     15.82689        -0.694201     -0.402105      0.244517
O      15.32981     13.40411      2.62963         0.094506     -0.086656      0.102343
O      15.28991     13.54582     15.77545         0.794394     -0.492174      0.117958
O       3.76069      1.83709      7.15162        -0.449394      0.211583     -0.302141
O       3.73627     13.48783      7.05341         0.799269     -0.465313     -0.057082
O      15.27485      1.83789      7.11978        -0.029586      0.309556     -0.054339
O      15.28146     13.33428      7.07267        -0.044697      0.251786      0.291432
O       3.67974      1.89887     11.57088         0.822173      0.105320     -0.355248
O       3.82669     13.46144     11.48255        -0.041551     -0.517272      0.004742
O      15.28078      1.76292     11.53645         0.138209      0.540245     -0.431444
O      15.34028     13.38971     11.46723         0.266181     -0.300832      0.202451
O       3.73800      5.76966      2.77748         0.638644     -0.113785     -0.242398
O       3.80766      5.68226     15.69377         0.435095      0.221776      0.658837
O      15.32522      5.72996      2.87294         0.185045     -0.243554     -0.321416
O      15.26535      5.79288     15.78568         0.613947      0.410551      0.176973
O       3.82489      5.70289      7.22508        -0.497766      0.290691     -0.117047
O      15.27887      5.74162      7.11374         0.507523      0.039464      0.015782
O       3.79653      5.66698     11.52135         0.281162      0.359986     -0.620728
O      15.35587      5.72366     11.48663        -0.188356     -0.010202      0.069131
O       3.86308      9.53265      2.63050         0.291113     -0.171701      0.480363
O       3.88167      9.65309     15.87129        -0.775920      0.006399      0.203204
O       0.14527      9.62515      2.79441        -2.041961      0.330067      0.079052
O      15.33729      9.51446     15.66398         0.332403      0.274353      0.590591
O       3.85020      9.57173      7.14474         0.345621     -0.260782     -0.551045
O      15.34564      9.47889      7.15376         0.184339      0.393410     -0.340329
O       3.83127      9.54920     11.46167         1.235085     -0.512555     -0.096504
O       0.01202      9.64215     11.58563         0.547550     -0.474897     -0.264094
O       7.62134      1.95168      2.71761         1.018028     -0.104624      0.124771
O       7.65637      2.02403     15.80136         0.393894     -0.578220      0.067406
O       7.68794     13.39539      2.75057        -0.909660      0.022239      0.112898
O       7.61974     13.41913     15.87313         0.556273     -0.030585     -0.400121
O       7.54019      1.85018      7.06746         1.295924      0.087805      0.480980
O       7.59180     13.42566      7.14217         0.234868     -0.344950     -1.107530
O       7.61467      1.89168     11.48444         0.427688     -0.560993      0.090726
O       7.72180     13.48926     11.48836        -0.635152      0.086286      0.443312
O       7.70991      5.69254      2.80203        -1.056794     -0.121788     -0.184645
O       7.63488      5.76794     15.83563         0.618032      0.399182     -0.250214
O       7.61483      5.64493      7.06854         0.807547     -0.174508      0.677588
O       7.73477      5.84979     11.48205        -0.127627      0.023801     -0.508184
O       7.67101      9.73655      2.74492        -0.066161     -0.053430     -0.205618
O       7.70662      9.56963     15.86931         0.159737      0.095731     -0.082310
O       7.63435      9.61645      7.04046         0.643185     -0.219264     -0.194687
O       7.81894      9.40660     11.38401        -1.601400      0.367111      0.167335
O      11.50963      1.97933      2.67871        -1.050868     -0.079986      0.271701
O      11.47864      2.00779     15.83333         0.042798     -0.658290     -0.340597
O      11.45262     13.40847      2.77974         0.873188      0.319462     -0.059542
O      11.46771     13.56344     15.80620         0.697862     -0.620560      0.165105
O      11.41002      1.74573      7.15057         0.812490      0.355765     -0.459892
O      11.44780     13.36135      7.09793         0.433462      0.354662      0.000542
O      11.50558      2.08461     11.54549         0.378709     -1.114316     -0.616377
O      11.45035     13.19953     11.48415         1.426110      0.725491     -0.167909
O      11.36710      5.76994      2.83856         1.371015      0.128809      0.307607
O      11.59898      5.70572     15.88920        -1.395142      0.611633     -0.374959
O      11.47082      5.62636      6.97895         0.253610      0.314911      0.395156
O      11.53248      5.62825     11.46036        -0.027135      0.037429      0.011667
O      11.53380      9.66696      2.73940         1.010067     -0.657927      0.117211
O      11.54428      9.56854     15.78209        -0.128105      0.452875      0.139839
O      11.48852      9.52759      7.03573         0.540052      0.323719      0.180963
O      11.52487      9.59844     11.41071         0.404892      0.308469     -0.070524
O       1.82343      3.71258      2.66942         0.065388      1.797799      0.319843
O       1.92444      3.90397     15.78366        -0.058149     -0.619214      0.565141
O       1.82659     15.28921      2.65266         0.175704      0.133472      0.040420
O       1.85999      0.12780     15.88852         0.122517     -2.481331     -0.048480
O      13.34349      3.81277      2.87571         0.177052      0.542469     -0.145835
O      13.52482      3.86781     15.75202        -0.665718     -0.130764     -0.019166
O      13.33691      0.02140      2.65803         0.118712     -0.306114     -0.180423
O      13.44522     15.31776     15.81072        -0.416353      0.012629      0.488192
O       1.84073      3.82361      7.08263        -0.095086     -0.509803      0.170479
O       1.78926      0.02006      7.04915         0.010954     -0.800451      0.361960
O      13.38403      3.75959      6.94537        -0.041293      0.255739      0.402470
O      13.39817     15.23520      7.09372        -0.082596      0.759946      0.251599
O       1.83050      3.82035     11.34090        -0.086472     -0.240960      0.579329
O       1.84835     15.29978     11.39507         0.208395     -0.039759      0.305891
O      13.53006      3.74665     11.45337        -0.029710      0.538232      0.005184
O      13.39689     15.26959     11.32361        -0.529841      0.415080      0.350483
O       1.84229      7.61680      2.63107         0.189476      0.457279      0.505190
O       1.91529      7.67832     15.71365         0.216296      0.386509      0.623247
O      13.53431      7.72777      2.67967        -0.326880      0.029999      0.370722
O      13.33247      7.70303     15.80266         0.432946     -0.445634     -0.170380
O       1.90066      7.68628      7.15767         0.132338     -0.525389     -0.224895
O      13.31823      7.63095      7.20076         0.319247     -0.121837     -0.371457
O       1.82763      7.63826     11.52791         0.621671      0.164241     -0.184202
O      13.47070      7.61592     11.46715        -0.134719      0.381317     -0.145179
O       1.94579     11.52542      2.54180         0.194157     -0.214357      0.654027
O       1.82100     11.56535     15.65536         0.043867      0.136509      0.628641
O      13.40231     11.61082      2.81589         0.531292     -2.051426      0.064137
O      13.49891     11.51268     15.73517        -0.378326     -0.026165      0.191817
O       1.88303     11.47637      6.97132        -0.021828     -0.105862      0.436384
O      13.41492     11.48493      6.88557        -0.137378     -0.952817      0.869842
O       2.05216     11.39537     11.46610        -0.493878      2.256703      0.628349
O      13.55843     11.43777     11.45132        -0.642164      0.773334      0.239552
O       5.67333      3.83150      2.77745        -0.039290      0.378487     -0.199034
O       5.80829      3.80043     15.68103        -0.695658      0.327920      0.666457
O       5.80169      0.03132      2.80470        -0.522474     -0.417171     -0.133137
O       5.87033      0.01955     15.71449        -0.459236     -0.762637      0.305535
O       5.58971      3.72260      7.18643         0.460351      0.831602      0.125256
O       5.65846     15.31645      7.08866         0.386820     -0.157695     -0.250054
O       5.84647      3.85516     11.46435        -0.638194     -0.067949     -0.019492
O       5.67012     15.34659     11.48932         0.263886     -0.158023      0.150846
O       5.91643      7.57440      2.65014        -0.635165      1.336841      0.219970
O       5.62666      7.62564     15.81996         0.680978      0.384880     -0.045728
O       5.83046      7.59874      7.08914        -0.597468      0.839842     -0.437809
O       5.75488      7.65617     11.39076        -0.415689      0.024564      0.325451
O       5.66243     11.55019      2.65865         0.137332     -0.388748      0.084114
O       5.77113     11.51157     15.78084        -0.184948      0.257967      0.132320
O       5.74175     11.54184      6.94876        -0.372702     -0.310350     -0.016153
O       5.79216     11.46153     11.39690         0.171013     -0.588646      0.608659
O       9.50323      3.81233      2.71875         0.605958     -0.221973      0.184987
O       9.59680      3.87680     15.77142        -0.107249     -0.050116     -0.183316
O       9.57923      0.04068      2.73647        -0.022492      0.232206     -0.237380
O       9.52669      0.05918     15.83850         0.260059     -0.347226     -0.152157
O       9.54254      3.73832      7.26200        -0.046498      0.097475     -0.616642
O       9.45777     15.25802      7.15740         0.467020      0.555693     -0.403051
O       9.51677      3.81277     11.42440         0.043139      0.673241      0.066666
O       9.79388      0.02569     11.46494        -0.624075     -0.654906     -0.060100
O       9.47476      7.73920      2.74378         0.408690     -0.554186      0.067914
O       9.63063      7.67343     15.75038         0.132007      0.192319      0.536491
O       9.57105      7.66560      7.24645        -0.121061     -0.132364     -1.125763
O       9.81655      7.65817     11.38935        -0.611835     -0.277978     -0.426136
O       9.66719     11.52519      2.79321        -0.514849     -0.153620      0.279217
O       9.60475     11.53683     15.95111        -0.122313     -0.145407     -0.763375
O       9.58838     11.53394      6.99073        -0.338581     -0.489637      0.174043
O       9.50190     11.46320     11.41194         0.179429     -0.366396      0.212109
