  # total energy = -7866.09519739 
CRSYTAL
PRIMVEC
    15.010000000000000    0.0000000000000000    0.0000000000000000
     0.0000000000000000   15.010000000000000    0.0000000000000000
     0.0000000000000000    0.0000000000000000    16.400000000000000
PRESSURE
17.9565 17.7086 8.46545 -0.10663 0.168914 -0.02895
PRIMCOORD
320 1
Pb       3.59623      3.77413      4.02056         1.001131     -0.377211      0.518808
Pb       3.85370      3.67672      0.04694        -0.606453     -0.016013     -0.586186
Pb       3.72243     14.98086      4.08821         0.336559      0.011908      0.068164
Pb       3.63874     15.00930      0.01097         0.603182      0.130987      0.135082
Pb       0.01495      3.70241      4.10855        -0.140950      0.274441      0.028365
Pb       0.04251      3.83678      0.08671         0.186501     -0.184878     -0.738885
Pb       0.06845     14.95167      4.02522        -0.560633      0.495869      0.713537
Pb      14.93840      0.01624     16.36763         0.176742     -0.237440      0.015641
Pb       3.92183      3.69047      8.23096        -0.108786      0.041725     -0.877386
Pb       3.81004     14.94351      8.31472         0.071926     -0.320340     -0.479269
Pb       0.10786      3.66695      8.14748        -0.851310      0.490409      0.226848
Pb       0.12725      0.06425      8.30928        -0.341402     -0.633832     -0.696028
Pb       3.77071      3.79413     12.34950        -0.250071     -0.071443     -0.157874
Pb       3.82321      0.04710     12.26117        -0.380871     -0.108799      0.147601
Pb      14.96658      3.65037     12.29013         0.682240      0.774241     -0.324863
Pb      14.91360     15.00076     12.30460         0.500358     -0.325521      0.075381
Pb       3.59762      7.55890      4.05289         0.245387      0.107869      0.175752
Pb       3.72039      7.44627     16.39716         0.021935      0.096805     -0.201597
Pb      14.87852      7.42630      4.09131         0.093151      0.557131      0.501288
Pb       0.01620      7.47965      0.03546        -0.139898      0.250142     -0.323715
Pb       3.66278      7.45680      8.28750         0.396129      0.419994     -0.678568
Pb      14.94380      7.43098      8.14291        -0.262045      0.527021     -0.011825
Pb       3.81159      7.50201     12.34067        -0.109870     -0.393782      0.167550
Pb       0.14574      7.50017     12.35037        -0.547090     -0.172428     -0.357628
Pb       3.66041     11.31823      3.93958         0.107733     -0.308608      0.520353
Pb       3.69974     11.28874      0.08267         0.261423     -0.440483     -0.212447
Pb      14.86274     11.30470      4.13887         0.005120     -0.439227      0.240137
Pb      14.96981     11.12855     16.36223        -0.097701      0.504149     -0.140982
Pb       3.67402     11.16095      8.23592         0.317817      0.716569     -0.026067
Pb      14.89602     11.19674      8.31353         0.221194     -0.206990     -0.867832
Pb       3.75552     11.24657     12.38278        -0.661711      0.023839     -0.147115
Pb      14.98810     11.19466     12.28235         0.391780      0.017963      0.780869
Pb       7.48553      3.66098      4.18133        -0.118935      0.350856     -0.153381
Pb       7.46011      3.81194      0.01676         0.378195     -0.576152     -0.048581
Pb       7.42068      0.03461      4.07584         0.079089     -0.218083      0.102636
Pb       7.52189      0.02779      0.06713        -0.201740      0.191821     -0.475344
Pb       7.57898      3.83132      8.31367         0.120578     -0.223611     -0.728365
Pb       7.47295     14.77481      8.33654         0.155611      0.590904     -0.293891
Pb       7.57662      3.61355     12.30001         0.291242      0.340418      0.112599
Pb       7.49916      0.00898     12.31198         0.096828     -0.084066      0.097003
Pb       7.42846      7.51874      4.10617        -0.214034     -0.600443      0.017626
Pb       7.45442      7.51300      0.13818         0.130218     -0.120292     -0.991197
Pb       7.48059      7.58043      8.20288        -0.076394     -0.056828      0.041563
Pb       7.51940      7.32076     12.29845         0.239259      0.874335      0.297456
Pb       7.31696     11.31460      4.09760         0.179394      0.301071     -0.514991
Pb       7.49861     11.24778      0.10387        -0.064325      0.021062     -0.509870
Pb       7.42867     11.17121      8.35607        -0.107582      0.165308     -0.450296
Pb       7.50727     11.16622     12.47062         0.473824      0.005840     -0.113805
Pb      11.39714      3.70480      4.11109        -0.554013      0.336195      0.084627
Pb      11.16114      3.75450      0.02052         0.478021     -0.168539     -0.609069
Pb      11.24104      0.04202      4.14781         0.479710     -0.288942     -0.168308
Pb      11.14369     14.97680      0.02310         0.331162     -0.092405     -0.807435
Pb      11.25933      3.77406      8.19250         0.123331     -0.031797     -0.360920
Pb      11.32749     14.95664      8.24237        -0.728431      0.259032     -0.396224
Pb      11.32157      3.73936     12.35817         0.195475      0.219587     -0.057373
Pb      11.24578     14.92936     12.22290         0.053716      0.362895      1.303716
Pb      11.00468      7.42196      4.10226         1.629602     -0.078131      0.936774
Pb      11.19697      7.50698     16.39548         0.515895     -0.189340     -0.375069
Pb      11.16716      7.50793      8.25047         0.641997      0.362961     -0.408330
Pb      11.26307      7.50384     12.39900         0.179149      0.329442     -0.605415
Pb      11.15046     11.33308      4.20698         1.082771     -0.373448     -0.257049
Pb      11.14246     11.32767      0.09962         0.661753     -0.340685     -0.990186
Pb      11.14608     11.17588      8.19288         0.097534     -0.266218     -0.044517
Pb      11.27095     11.27212     12.34481        -0.332309     -0.693089      0.392310
Ti       1.88930      1.80967      2.08235        -0.209704      0.174943     -0.060909
Ti       1.88362      1.87739     14.38669         0.707080     -0.192377      0.217270
Ti       1.75326     13.10218      2.03697         1.375945      0.791347      0.157166
Ti       1.87982     13.13176     14.46369        -0.751568     -0.326045     -1.264895
Ti      13.16468      1.89909      1.97960        -0.040983     -1.041307      0.166514
Ti      13.16657      1.87853     14.37861        -1.160083      0.540988      1.401670
Ti      13.10663     13.17149      2.04633        -0.408876     -0.255290      1.270683
Ti      13.12438     13.15438     14.32360        -0.675691     -1.923460      1.453895
Ti       1.88100      1.84019      6.21268         1.069046      0.267280     -0.689545
Ti       1.75945     13.14552      6.28312         1.170378     -0.611091      0.472680
Ti      13.12701      1.83544      6.19056         0.752009      0.246228      0.756928
Ti      13.06225     13.15670      6.26859         0.216365     -0.984157     -0.855049
Ti       1.93024      1.85300     10.20515         0.236456      1.200565      0.857952
Ti       1.86526     13.13334     10.38565         0.183246     -0.691884     -0.839074
Ti      13.15912      1.90376     10.26706         0.622309     -0.062414     -1.033156
Ti      13.13249     13.10902     10.26770        -0.145870     -0.055678      0.256466
Ti       1.85407      5.64140      2.11355        -0.399268     -0.026007     -0.815522
Ti       1.87085      5.61595     14.32850         0.182649     -0.568970      0.566273
Ti      13.11190      5.61657      2.05039         0.249741      0.396190      1.026544
Ti      13.18063      5.63777     14.33203        -1.067945     -0.199056      1.195385
Ti       1.84277      5.60918      6.22636         0.769747      0.681600      0.028581
Ti      13.12112      5.54876      6.22811        -0.224820      1.147297     -0.694101
Ti       1.98509      5.61538     10.23340        -1.207350     -0.435863      2.150420
Ti      13.22742      5.65734     10.25935         0.111057      0.370204      0.277633
Ti       1.83676      9.41869      2.03752         0.771513     -1.128842      0.347913
Ti       1.98519      9.36789     14.36256        -1.515360      0.480841     -0.332207
Ti      13.09894      9.37075      2.09332         0.922191      0.379132      0.342096
Ti      13.14073      9.40947     14.45738        -0.061295     -0.639641     -0.389716
Ti       1.85563      9.36644      6.28430        -1.304228      0.492244     -1.179999
Ti      13.11266      9.34438      6.15802        -0.050569     -0.154413      1.524286
Ti       1.81791      9.35034     10.28759        -0.326157      0.452402      0.211592
Ti      13.10615      9.40333     10.40144        -0.570277     -1.526809     -0.651607
Ti       5.64121      1.91133      2.05901         0.184431     -1.027228      0.809704
Ti       5.62756      1.82734     14.32200        -0.077822      0.552405      1.152773
Ti       5.57375     13.19573      1.93533         0.959506     -0.287482      0.322318
Ti       5.61115     13.13884     14.41597         0.668267      0.366312      0.436867
Ti       5.74080      1.86254      6.25611        -1.509156      0.722360     -0.296357
Ti       5.55246     13.12602      6.24555        -0.192763      0.044381     -0.528421
Ti       5.72191      1.97296     10.26571        -0.464151     -2.241232     -0.211343
Ti       5.62724     13.03802     10.46317        -0.142036      1.100202     -1.305237
Ti       5.60928      5.65908      2.06869        -0.171521     -0.773513      1.162621
Ti       5.68210      5.61212     14.41337        -0.502208      0.869068     -0.322918
Ti       5.59593      5.69841      6.18229         0.389172     -0.961063     -0.981406
Ti       5.72751      5.62585     10.26441        -0.030915      0.959801      0.374671
Ti       5.66523      9.38339      2.06473        -1.533853      0.310403      0.248119
Ti       5.65312      9.42702     14.43356         0.020683     -1.718568     -0.250496
Ti       5.53011      9.42605      6.12231         0.024455      0.071242      0.106265
Ti       5.53916      9.36357     10.43688         0.254240      0.144347     -1.030251
Ti       9.44218      1.86822      2.10671        -1.503531      0.837908     -0.257393
Ti       9.38527      1.83306     14.43877        -0.548169     -0.817292     -0.781948
Ti       9.34431     13.11199      2.04760        -0.555863     -0.539674      0.018913
Ti       9.33611     13.04065     14.39340         0.490398      1.318777      0.805926
Ti       9.37233      1.82944      6.26047         0.426879     -0.152142     -0.137179
Ti       9.24805     12.99789      6.15374         0.828995      0.654143      0.891056
Ti       9.50818      1.86118     10.31936        -1.308446      0.630897     -0.622599
Ti       9.40637     13.15612     10.35704        -0.668278     -1.167799     -0.128404
Ti       9.39200      5.60758      2.09012        -0.796508     -0.440830      0.984085
Ti       9.40292      5.53942     14.33037        -0.160914      0.416980      1.144746
Ti       9.30973      5.62622      6.23960         1.004335     -0.677060     -0.587430
Ti       9.49847      5.61485     10.27657        -0.413516      0.386071      0.080266
Ti       9.41909      9.34075      2.10895        -0.840633      1.316818     -0.781229
Ti       9.40370      9.30959     14.47255         0.084802      0.348774     -1.070687
Ti       9.29164      9.35061      6.11897         1.018149      0.189104      0.073849
Ti       9.29933      9.37939     10.42361         0.777577     -0.130359      0.606910
O       1.86654      1.67851      0.30637        -0.132069      0.514311     -1.037576
O       2.07348      1.77491     12.59260        -0.526509      0.602312     -0.073697
O       1.84782     13.11837      0.24958        -0.214733      0.153105     -0.250265
O       1.88122     13.04102     12.57895         0.034261      0.406134      0.128135
O      13.10600      1.79350      0.18270         0.117900      0.234012     -0.047161
O      13.14165      1.84710     12.60205         0.084745      0.179002     -0.766800
O      13.11725     13.14474      0.30824         0.136012      0.015115     -1.046819
O      13.10353     13.00806     12.54363         0.179414      0.704196     -0.313510
O       1.86367      1.81325      4.34363         0.145822      0.399226      0.092036
O       1.78662     13.09902      4.47650         0.279447      0.073392     -1.112587
O      13.08539      1.83199      4.39101        -0.146197      0.310769     -0.902492
O      13.04947     13.19309      4.40405         0.100079     -0.026548      0.426452
O       1.81795      1.88977      8.38681         0.356288      0.029941      0.232228
O       1.89065     13.28669      8.52876        -0.271461     -0.399350      0.515847
O      13.17121      1.79134      8.37443        -0.087122      0.347195      2.531884
O      13.09081     12.98821      8.45831        -0.043767      0.571533      0.078496
O       1.80037      5.67005      0.24874        -0.031502     -0.383909      0.676320
O       1.81982      5.53934     12.52519         0.444756     -0.080225      0.365062
O      13.26992      5.61669      0.27407        -0.321882     -0.283827     -0.107285
O      13.17716      5.61365     12.56722        -0.047513     -0.238676     -0.694615
O       1.77425      5.76084      4.42421         0.545508     -0.728692     -0.823176
O      13.14033      5.57512      4.35328        -0.007360     -0.196721      0.896633
O       1.82419      5.59197      8.48166         0.639501      0.092291     -0.894323
O      13.05913      5.54626      8.44219         0.349619      0.270960      0.424664
O       1.84569      9.40943      0.22269         0.101652     -0.058540     -0.212841
O       1.86381      9.43255     12.46268         0.394462     -0.151339      2.117877
O      13.21193      9.41563      0.29431        -0.139296     -0.227591      0.218594
O      13.10924      9.38164     12.61783        -0.164494     -0.202558      0.166853
O       1.94716      9.30896      4.40406        -0.550974      0.516384      0.046049
O      13.12217      9.28841      4.43052         0.145993      0.110865     -2.327103
O       1.89733      9.25404      8.46356        -0.012605      0.188425      0.293464
O      13.14776      9.47746      8.56311        -0.325145     -0.376875      0.281659
O       5.66822      1.80987      0.28638         0.104545      0.515538     -0.624116
O       5.50414      1.79523     12.52174         0.336354      0.561121     -0.747888
O       5.78527     13.12662      0.11146        -0.398330      0.129140      0.777281
O       5.69434     13.19378     12.57415        -0.481578     -0.430421     -0.470995
O       5.77856      1.83127      4.41406        -0.620409     -0.218229     -0.171643
O       5.64273     13.26386      4.38308        -0.388060     -0.808386      0.619993
O       5.71314      2.01309      8.42598         0.078795     -0.312567      0.978868
O       5.58936     12.98699      8.57669         0.480635      0.452248      0.137264
O       5.47008      5.61198      0.23775         0.234836     -0.213229      0.153477
O       5.65464      5.68174     12.56841         0.253669     -0.408132      0.320804
O       5.69475      5.71633      4.31216         0.047766     -0.156008      0.697637
O       5.64696      5.62712      8.45211         0.045419      0.135323      0.189693
O       5.67509      9.37187      0.24736         0.069038     -0.227324     -0.081536
O       5.48784      9.23765     12.56672         0.355061      0.844093      0.645390
O       5.51485      9.50090      4.28929         0.269893     -0.356368      0.388071
O       5.54693      9.51115      8.57536         0.106384     -0.787000      0.415437
O       9.27494      1.95502      0.25497         0.370515     -0.485384      0.718086
O       9.35120      1.76342     12.54732         0.410074      0.691834      0.596280
O       9.20199     13.01540      0.17330         0.457245      0.672534      1.896159
O       9.40156     13.13365     12.62201        -0.071599      0.374725     -1.838740
O       9.41584      1.81456      4.37184         0.169791      0.264817      0.691428
O       9.36177     12.88361      4.33638        -0.045006      0.539255     -0.302424
O       9.45565      1.71494      8.51511        -0.077849      0.420912     -0.267582
O       9.30665     13.07666      8.55081         0.343741      0.010847     -0.106345
O       9.45532      5.47131      0.33312        -0.169405      0.854861     -1.129526
O       9.34000      5.41482     12.55653         0.142267      0.163294     -0.575808
O       9.17927      5.73732      4.38753         0.591835     -0.287316     -0.291460
O       9.32289      5.65292      8.44074         0.550785      0.275950      0.135312
O       9.38356      9.21449      0.21839        -0.597152      0.193586      0.555663
O       9.55353      9.34538     12.57618        -0.830455      0.195551      1.183050
O       9.46420      9.38054      4.28164        -0.598128      0.246920      0.626661
O       9.42986      9.37434      8.60925        -0.416447     -0.387849     -0.438885
O       3.76405      1.95021      2.25056        -0.203376      0.340612      0.748866
O       3.77403      1.67533     14.82392        -0.678819      0.655695     -0.586164
O       3.75087     13.09759      2.20136        -1.186478     -0.779038      0.496771
O       3.73777     13.29580     14.67836         0.181088     -0.177969     -0.024621
O      15.00949      1.59917      2.20283        -0.467484      0.781611      0.556822
O      15.00695      2.09665     14.61192         0.111546     -0.311996      0.066181
O      14.95616     13.28265      2.35801         0.406953     -0.042122      0.093578
O      14.97185     12.98283     14.66975         0.436508     -0.411423     -0.023197
O       3.85384      1.93369      6.49150        -1.640401      0.016446      0.048309
O       3.74190     13.11505      6.49652        -0.603915      0.514739      0.098098
O       0.03142      1.77070      6.43886        -1.229493     -0.123235      0.023054
O      14.96984     13.29602      6.51748        -0.812327     -0.065781      0.169066
O       3.79691      2.06008     10.45168         0.455986      0.443851     -0.051071
O       3.72813     12.80661     10.43905         0.369053      0.227514      1.011391
O       0.05836      1.65015     10.65089        -0.661663      0.286537     -0.386073
O      14.94098     13.33064     10.55029         1.196962      0.346610      0.169358
O       3.70251      5.51796      2.48292        -0.021110     -0.319076     -0.424258
O       3.69305      5.76430     14.57688         1.316958      0.023688      0.072110
O      14.96993      5.71758      2.54371         0.972229     -0.882222     -1.046328
O      14.97403      5.41565     14.60357         1.249977     -0.053664      0.335178
O       3.75822      5.50955      6.48654        -0.894921      0.392791      0.004059
O      15.00254      5.60093      6.49461        -0.572006      0.647622      0.253329
O       3.85709      5.48410     10.66210        -0.667788     -0.319613     -0.634092
O       0.11121      5.75406     10.58461        -0.907889      0.383076     -0.263438
O       3.73190      9.54436      2.28442         0.104007      0.045969      0.141115
O       3.77444      9.24021     14.72056        -0.049920     -0.426586     -0.128749
O       0.06077      9.36532      2.33910        -1.798840     -0.398292      0.384684
O       0.01880      9.55648     14.62808         0.458735     -0.379194     -0.018727
O       3.67487      9.37196      6.36455         1.336344     -0.290060      0.775896
O      14.98394      9.27537      6.60666         0.311639      0.032461     -0.272367
O       3.63638      9.61151     10.58247         1.877401      0.186961     -0.000259
O      14.98124      9.10770     10.65759        -0.091692      0.178996     -0.346430
O       7.50963      1.72189      2.36591         0.240917     -0.074046      0.026541
O       7.45080      1.95860     14.55093         0.324237     -0.095860      0.253420
O       7.46846     13.21611      2.45320         0.271570      0.342430     -0.600836
O       7.49016     12.87077     14.55469        -0.752381      0.302357      0.006756
O       7.54617      1.86850      6.47164         0.858878      0.234074      0.285053
O       7.44168     12.82572      6.47646        -0.057431      0.453167      0.151316
O       7.61789      1.70220     10.61700        -1.402646     -0.215261     -0.255232
O       7.54692     13.43152     10.50960        -0.438350     -0.133284      0.433991
O       7.45736      5.83452      2.12561         0.297560      0.109577      0.441669
O       7.54882      5.46851     14.76371        -0.800592      0.352984     -0.116880
O       7.52414      5.64006      6.45766        -1.411657      0.387989      0.514093
O       7.57572      5.81158     10.52739        -1.057378     -0.084038     -0.110972
O       7.45861      9.26347      2.43168         0.315943     -0.456388     -0.323605
O       7.50872      9.51018     14.57358         0.113756      0.188037      0.170950
O       7.47487      9.47103      6.54463        -0.608489     -0.797525     -0.484686
O       7.46789      9.10052     10.67928        -0.166723      0.573529     -0.196130
O      11.26579      2.07588      2.21516        -0.267422     -0.252982      0.505235
O      11.19061      1.77592     14.63360         1.496371     -0.304989      0.244801
O      11.26059     12.90906      2.19754        -2.002490      0.400198      0.527450
O      11.22142     13.14522     14.75949         0.983337      0.875057      0.042875
O      11.27271      1.95592      6.57221        -1.062004     -0.535837     -0.474157
O      11.18999     12.90430      6.46396         0.030064      0.476873     -0.008656
O      11.35041      2.01494     10.64577        -0.298631      0.641583     -0.161427
O      11.28570     12.89699     10.59087        -0.317069      0.330326     -0.127309
O      11.24919      5.53164      2.43132         0.135237      0.192854     -0.175682
O      11.21644      5.73881     14.64965         0.271761     -0.325411      0.157579
O      11.26215      5.54236      6.41853        -0.726373     -0.079592      0.124282
O      11.31531      5.47813     10.58720        -0.346236     -0.603276      0.001517
O      11.25213      9.49316      2.26303         0.056577     -0.157360      0.196820
O      11.24781      9.26843     14.85843         0.133770     -0.434486     -0.430292
O      11.24802      9.38775      6.42982        -0.648229      0.217721      0.416185
O      11.23155      9.47384     10.67446         0.358416      0.334299     -0.470958
O       1.78161      3.70966      2.21167        -0.390975      0.295412      0.752241
O       2.09759      3.72329     14.78271        -0.417962      0.031305     -0.387461
O       1.99248     14.98726      2.42998        -0.003493     -1.147069      0.181172
O       1.66976     14.99052     14.65487         0.105914      0.323441      0.008404
O      13.20392      3.73229      2.37053         0.511906     -0.086650     -0.046509
O      12.90595      3.77538     14.65738         0.152263     -1.006076     -0.216951
O      12.95163      0.06416      2.40945        -0.456665     -0.925354     -0.171765
O      13.25690     14.93232     14.65185        -0.164180      1.935220     -0.274054
O       1.57753      3.75198      6.36514         1.486634     -0.553549     -0.111559
O       1.88114      0.03043      6.52123         0.558665     -0.418373     -0.046693
O      13.15147      3.70007      6.47913         0.261926     -0.056622     -0.047310
O      12.94766      0.01730      6.48839        -0.016628     -1.228741     -0.039733
O       1.70635      3.70909     10.50449         0.385303      0.380392      0.170941
O       2.15228      0.03411     10.45355        -0.239003     -0.971721      0.527074
O      13.30489      3.79459     10.58951         0.081570     -1.712686      0.071780
O      12.95971      0.02955     10.66147         0.226402     -0.637008     -0.786273
O       1.99030      7.47789      2.18788        -0.010623      0.773076      0.575671
O       1.74546      7.49765     14.64288        -0.278951      0.095966     -0.227368
O      13.18608      7.46478      2.33211        -0.766707      1.145884     -0.062683
O      13.18824      7.47623     14.75234         0.278628      0.261140     -0.111939
O       1.88124      7.48480      6.55287         0.173872     -0.511040      0.136379
O      13.05807      7.46426      6.52055         0.319925     -0.391826      0.235977
O       2.10497      7.52618     10.63607        -0.002343     -1.320170     -0.478406
O      12.90638      7.43659     10.64772         0.518451      0.890246     -0.462622
O       1.70743     11.28031      2.27998         0.487786      0.455317      0.542006
O       2.12511     11.23198     14.71767        -0.478594      0.261922     -0.365597
O      13.16657     11.27054      2.51554         0.549392     -0.359771     -0.458547
O      12.93833     11.19664     14.72179         0.291758      1.322007      0.019395
O       1.82775     11.27733      6.66947        -0.416863     -0.293798     -0.551008
O      13.34041     11.23077      6.33229        -0.403652      0.717112      0.297283
O       1.56686     11.23292     10.54670         0.106856      0.642478     -0.586662
O      13.35686     11.23165     10.62645        -0.261400      0.619133     -0.445708
O       5.74562      3.71895      2.44597        -0.207861      1.100624     -0.277068
O       5.53399      3.75146     14.59724        -0.560800     -0.291879      0.320803
O       5.40594     14.97637      2.32138         0.802727      1.155836      0.204989
O       5.68758      0.02555     14.65955         0.656442     -1.425927     -0.048388
O       5.64785      3.82407      6.41061         0.537146     -0.723689      0.132726
O       5.72670     14.99310      6.58389        -0.070231     -0.428293      0.028475
O       5.94570      3.77706     10.48146        -0.405984     -0.125113      0.505026
O       5.45634      0.00049     10.52347         0.099704      0.148287     -0.236814
O       5.37850      7.47731      2.30016         0.364377      0.950344     -0.156827
O       5.81148      7.48057     14.74857        -0.342593      0.148126     -0.092536
O       5.60787      7.55407      6.46930         0.061879      0.202471      0.310528
O       5.49098      7.52167     10.58922        -0.449534     -0.801671     -0.381975
O       5.69965     11.31172      2.19894         0.201673     -0.507190      0.506169
O       5.44003     11.22386     14.68993        -0.196770      0.795150     -0.422838
O       5.45084     11.21505      6.52368         0.432650      0.347122     -0.347921
O       5.91484     11.23076     10.69483        -0.131284     -0.191181      0.268544
O       9.23481      3.79556      2.40020        -0.124621     -0.841084      0.240886
O       9.34800      3.66865     14.77342         0.690181      0.877076     -0.458455
O       9.48410     14.99971      2.32771         0.373376     -0.571537     -0.174236
O       9.25672     14.95647     14.81048        -0.189335      0.495657     -0.143864
O       9.34592      3.74512      6.59397         0.097187     -0.745908     -0.409193
O       9.23783     14.84940      6.46802         0.697535      0.779982     -0.222286
O       9.13686      3.78336     10.44653         0.583484     -1.284747      0.280895
O       9.72062      0.03950     10.53945        -0.413402     -1.561374     -0.039578
O       9.46418      7.55183      2.41871        -0.375317     -1.751862     -0.459256
O       9.25982      7.44789     14.49444        -0.101681     -0.339617      0.647238
O       9.42748      7.47534      6.43913        -0.166526      1.317281      0.370035
O       9.48804      7.44005     10.60542         0.539810      0.761591      0.297013
O       9.07402     11.18146      2.14048         0.614958      0.999171      0.501884
O       9.56371     11.27355     14.64716        -0.323847     -2.295407      0.091696
O       9.35127     11.12311      6.59761         0.266492      0.841146     -0.301859
O       9.12764     11.26946     10.70976         0.237179      0.013234     -0.400175
