  # total energy = -7878.78427099 
CRSYTAL
PRIMVEC
    15.6000000000000000    0.0000000000000000    0.0000000000000000
     0.0000000000000000   15.6000000000000000    0.0000000000000000
     0.0000000000000000    0.0000000000000000    17.640000000000000
PRESSURE
-2.8562 -3.1323 2.35345 0.082635 -0.203406 0.037422
PRIMCOORD
320 1
Pb       3.74766      3.74670      4.37678         0.535345      1.038144      0.407094
Pb       3.89992      3.93163     17.57773         0.415100     -0.210317      0.063653
Pb       3.87305     15.49725      4.28967        -0.636067      0.587840      1.225098
Pb       3.76843     15.57329     17.50388         0.583280     -0.129204      1.464836
Pb       0.04893      3.90116      4.34382        -0.071815     -0.208995      0.295697
Pb      15.59388      3.99625     17.62402         0.049758     -0.587385      0.208834
Pb      15.52794     15.51635      4.25695         0.337149      0.182613      1.089673
Pb      15.46782      0.02918     17.53065         0.024781     -0.105231      0.752979
Pb       3.79716      3.97140      8.77023         0.286757      0.064369      0.629957
Pb       3.81668      0.05907      8.69205         0.727945     -0.390339      0.706193
Pb      15.54749      3.95397      8.68806         0.657225     -0.385322      1.003515
Pb       0.00199     15.58754      8.73583        -0.235820     -0.032334     -0.476015
Pb       3.93280      3.59774     13.22279         0.215597      0.733250      0.191056
Pb       3.79081     15.48499     13.12300         0.655513      0.451032      0.329330
Pb       0.01259      3.76692     13.15260        -0.196838      0.638502      0.532314
Pb      15.58417      0.14142     13.09554        -0.513141     -0.887046      0.815724
Pb       3.88691      7.79718      4.39526        -0.110923      0.022220      0.575036
Pb       3.94877      7.82144     17.57737         0.350969     -0.136722      0.674667
Pb       0.07037      7.99002      4.41805        -0.150842     -0.722505     -0.229431
Pb       0.07170      7.87788     17.48589        -0.184626     -0.569287      0.583073
Pb       3.93860      7.93192      8.83898        -0.959746     -0.620690     -0.191860
Pb      15.53484      7.81338      8.87631         0.168212      0.307473     -0.567438
Pb       3.93305      7.75597     13.09342        -0.422766      0.364652      0.741650
Pb       0.10359      7.89568     13.17063        -0.243704     -0.332027      0.240260
Pb       3.91231     11.65642      4.35504         0.310722     -0.737706      0.247704
Pb       3.94898     11.63066     17.54880        -0.608444      0.502649      0.860341
Pb      15.52109     11.54906      4.27839        -0.340407      0.466256      0.167174
Pb      15.53988     11.64203     17.46679         0.350264      0.278756      0.326286
Pb       3.83569     11.58917      8.74187         0.295327      0.222289      0.410653
Pb      15.49355     11.81259      8.77322         0.011714     -0.286702     -0.260576
Pb       3.82167     11.81081     13.11624        -0.132656     -0.444851      0.344283
Pb      15.48556     11.63580     13.11840         0.299841      0.407374      1.142374
Pb       7.88254      3.64685      4.53831        -0.754322      0.252177     -0.507645
Pb       7.77347      3.82083     17.53756        -0.237608      0.668117      0.730491
Pb       7.67493     15.41986      4.31908        -0.148860      0.760374      0.877790
Pb       7.73881     15.59671     17.60447        -0.174474      0.283315      0.591878
Pb       7.63206      3.93230      8.73184        -0.075675     -0.054143      0.119792
Pb       7.83564     15.57672      8.68546        -0.631086      0.072084      0.380446
Pb       8.09119      3.99666     13.06216        -1.706639     -0.118161      1.238448
Pb       7.80803      0.04072     13.21112        -0.042830      0.471579     -0.028743
Pb       7.97648      7.72698      4.36078        -0.785176      0.032081      0.297148
Pb       7.83017      7.91051      0.02318        -0.077354     -0.439291     -0.214390
Pb       7.70383      7.84134      8.69390         0.782160     -0.242403      0.968085
Pb       7.73698      7.94843     13.08847         0.436740     -0.573752      0.135320
Pb       7.88515     11.72417      4.40886        -0.736178     -0.248425     -0.013858
Pb       7.76964     11.73216      0.01980         0.128434     -0.534412      0.086417
Pb       7.85921     11.73263      8.96356        -0.187986      0.175694     -0.957361
Pb       7.79312     11.81425     13.18300         0.014100     -0.624191     -0.033822
Pb      11.66708      3.89055      4.43999         0.183727     -0.715526     -0.624957
Pb      11.86696      3.82319     17.61739        -0.672143      0.100280      0.097090
Pb      11.48353     15.36295      4.41453         1.144790      0.813267      0.466176
Pb      11.41833     15.45896     17.61254         0.798944      0.238831      0.349399
Pb      11.51440      3.93186      8.78224         0.663760     -0.273380     -0.001733
Pb      11.85315      0.08068      8.67077        -0.396277     -0.469510      0.368632
Pb      11.82065      3.94497     13.16859        -0.023591     -0.108716      1.025312
Pb      11.68599     15.53844     13.14012        -0.142550      0.169201      0.326547
Pb      11.79341      7.61711      4.22158        -0.596986      1.289142      1.128354
Pb      11.68604      7.68463     17.47644        -0.104805      0.287575      0.136751
Pb      11.55273      7.80454      8.68138         0.302531      0.281296      0.249328
Pb      11.75950      7.69158     13.22045        -0.198607      0.621636      0.083682
Pb      11.66709     11.64695      4.21501         0.602032     -0.252606      0.292346
Pb      11.84884     11.54217     17.43559        -0.672873      0.211808      0.276666
Pb      11.76072     11.60473      8.57791        -0.209828      0.237340      0.052033
Pb      11.59543     11.61264     12.97127        -0.122153      0.277128      0.553450
Ti       1.86328      1.83791      2.35004        -0.349186      0.462137      0.789022
Ti       1.91940      1.89712     15.69390        -0.234127      0.770856      2.409394
Ti       1.97715     13.52883      2.41268        -1.566954      0.596241     -0.224692
Ti       1.85211     13.63158     15.65652        -0.242583     -0.071715      1.627006
Ti      13.54900      1.90480      2.46400         0.369127     -0.147111      1.336128
Ti      13.57472      1.81930     15.53317         0.466376      1.033276      1.025836
Ti      13.66046     13.64307      2.34792        -0.085310     -0.003346      0.150799
Ti      13.56069     13.65922     15.57164        -0.101995     -0.051325     -0.481030
Ti       1.93136      1.92848      6.81364         0.123950      0.580391      1.164726
Ti       1.99932     13.58513      6.75873        -1.306672      0.606958      0.122793
Ti      13.66249      2.08297      6.80392        -0.393506     -1.672649     -0.687041
Ti      13.62545     13.61775      6.75227        -0.152060     -0.464276      0.483090
Ti       1.86721      1.94105     11.16453         1.191777      0.692610      0.509078
Ti       1.83009     13.73189     11.29183         0.745482     -1.859277     -0.947589
Ti      13.58431      1.90215     11.15990        -0.329310      0.242105     -0.378489
Ti      13.64591     13.66369     11.25692        -0.643671     -0.545088      1.455048
Ti       1.95774      5.83827      2.50332         0.203344      0.049152      2.236528
Ti       2.01944      5.86026     15.66159        -0.685449     -0.354580      0.089508
Ti      13.66877      5.84052      2.53299         0.354617     -0.406183      1.566328
Ti      13.71116      5.81427     15.61562        -0.564538     -0.339094     -0.274303
Ti       1.87087      5.85231      6.91817         0.874141      0.401082     -0.569717
Ti      13.58975      5.81043      6.78903         0.511306      1.088596      0.021957
Ti       1.88300      5.80982     11.34512         1.057035     -0.156049      0.459910
Ti      13.68011      5.79990     11.20350        -0.310262      1.027565      1.503086
Ti       1.95253      9.75084      2.27787         0.581407     -0.544969      0.082864
Ti       2.02876      9.74248     15.59653        -0.772965      0.233021     -0.211895
Ti      13.61199      9.67622      2.08702         0.173502      0.053395      2.605741
Ti      13.72661      9.66770     15.43716        -0.891341     -0.307665      1.364084
Ti       1.84205      9.79719      6.89008         0.044126     -0.878130      1.219434
Ti      13.66283      9.58551      6.79927        -0.250021      1.962931      0.653743
Ti       1.89720      9.82637     11.22269         0.526789      0.198285      1.655586
Ti      13.61327      9.75714     11.17341        -0.419877     -0.855972      0.645870
Ti       5.75918      1.95097      2.48088         0.963208      0.725052     -0.976919
Ti       5.84616      1.85765     15.62181        -0.330923      1.240377      1.261041
Ti       5.71040     13.63546      2.38708         1.400399     -0.870318     -0.641194
Ti       5.78994     13.60674     15.62201        -0.218589      0.356142      1.779080
Ti       5.79385      2.00339      6.82553         0.066622     -1.005331      0.040219
Ti       5.76196     13.56419      6.92836         0.874915      0.440027     -0.003739
Ti       5.86227      1.89351     11.17813        -0.192632      0.652439      2.047071
Ti       5.88748     13.67239     11.22903        -0.662446      0.347596     -0.908465
Ti       5.88182      5.81950      2.65968        -0.792640     -0.513155      1.178592
Ti       5.83747      5.90310     15.54009         0.940201     -0.686017      0.563495
Ti       5.82120      5.95428      6.81296        -0.962095     -1.166370      0.202461
Ti       5.71626      5.78523     11.32500         0.718929     -0.704065      0.971421
Ti       5.94912      9.67099      2.49010        -1.352405      0.228145      1.265304
Ti       5.82972      9.78973     15.55267         0.826115     -0.265832      0.370118
Ti       5.85203      9.67224      6.80040        -1.213869      2.105745      0.163946
Ti       5.76522      9.80499     11.19558         0.247034      0.215494      2.006129
Ti       9.70670      1.84773      2.47079         0.180368      0.664441     -0.175968
Ti       9.72730      1.93608     15.61781         0.155105      0.405038      0.142122
Ti       9.69209     13.61583      2.41227         0.305633     -0.578505     -0.167240
Ti       9.62527     13.55064     15.61612         1.163101      0.287595      0.913854
Ti       9.74001      1.86922      6.82732        -0.218643     -0.142225      0.036951
Ti       9.68506     13.65911      6.86275         0.944969     -0.775023      0.657330
Ti       9.76340      2.01351     11.15195        -0.047905     -1.347095      2.154362
Ti       9.72511     13.77051     11.18387         0.194282     -0.465688      1.202381
Ti       9.68862      5.78124      2.46016        -0.143066     -0.739681     -0.022048
Ti       9.71064      5.80711     15.68951         0.054737      0.186763      0.715760
Ti       9.71957      5.79518      6.78752        -0.266194      0.295889      0.940107
Ti       9.81391      5.84466     11.18047        -0.624963      1.693026      1.586648
Ti       9.76652      9.66308      2.34148         0.383063      0.279857      0.248000
Ti       9.72618      9.75812     15.50546         0.086184     -0.559504      2.387141
Ti       9.58965      9.72452      6.72785         1.589347      0.742768      0.520665
Ti       9.70741      9.76021     11.07668         0.215144     -0.156954      1.475776
O       1.74648      1.91749      0.64875         0.469062      0.058578     -0.861140
O       2.06553      1.91907     14.02174        -0.447765     -0.425928     -2.517440
O       1.98943     13.48819      0.69688        -0.084312      0.111029     -0.317759
O       1.82161     13.64098     13.98576         0.122185      0.591534     -2.290356
O      13.58889      1.88423      0.75007        -0.181741     -0.142051     -0.893454
O      13.58894      2.03191     13.79193         0.328592     -0.485654      0.018646
O      13.59162     13.85170      0.62016        -0.020859     -0.496757      0.057394
O      13.54532     13.76952     13.82095         0.071936     -0.484560      0.132111
O       2.02107      2.23224      5.14712        -0.396211     -0.966673     -0.875945
O       1.84828     13.66070      5.04304         0.614877     -0.390917     -0.265671
O      13.49027      2.06624      5.07152         0.646171      0.129991      0.828193
O      13.58487     13.44669      5.06363         0.063909      0.354138     -1.283993
O       1.87489      2.04123      9.47742         0.082282     -0.327311     -1.103775
O       1.83660     13.51844      9.57253        -0.221239      0.388856     -0.278018
O      13.69440      1.93273      9.41730        -0.406541      0.071716      0.305890
O      13.63404     13.60998      9.57853         0.167421     -0.022937     -1.929652
O       1.84551      5.84885      0.82845         0.260157      0.121678     -2.339821
O       1.90710      6.02501     13.97521         0.210719     -0.275000     -1.149317
O      13.79097      5.82349      0.87717        -0.097601     -0.242003     -2.955636
O      13.61042      5.69369     13.87267         0.203331      0.182047      0.180604
O       1.91029      5.68339      5.20913         0.007194      0.587243     -0.283732
O      13.53806      6.02125      5.04559        -0.126217     -0.728387      0.350952
O       1.90491      5.66695      9.65217        -0.300288      0.563011     -1.164821
O      13.57131      5.77833      9.49356         0.216749      0.159536     -0.343411
O       2.01248      9.71834      0.51082        -0.182526     -0.001078      0.639670
O       2.04114      9.73937     13.85963        -0.270792     -0.154549      0.106022
O      13.68711      9.58299      0.39073        -0.205184      0.208881     -1.197063
O      13.67180      9.59998     13.70975         0.026351      0.394717      0.078519
O       1.75471      9.81260      5.19835        -0.059096     -0.238395     -1.586085
O      13.94649      9.73376      5.12351        -0.508055     -0.466937     -1.344931
O       1.86799      9.96545      9.52486         0.066096     -0.270144     -1.214967
O      13.69327      9.84152      9.45222        -0.107205     -0.338026     -0.724020
O       5.97047      1.86197      0.71560        -0.664178      0.351403      1.097279
O       5.89567      1.86206     13.89991        -0.302820     -0.129658     -0.026170
O       5.69148     13.60254      0.62785         0.260866      0.059164      0.700662
O       5.78137     13.55637     13.92028         0.148597      0.258367     -0.599231
O       5.86864      2.04202      5.09762        -0.424931     -0.378885      0.024784
O       5.80641     13.59092      5.19821        -0.156858     -0.078185     -0.724206
O       5.75354      1.96904      9.48861         0.444748      0.021070     -1.226496
O       5.94447     13.74064      9.45739         0.075328     -0.367919      0.822305
O       5.69759      5.83797      0.99741         0.058304      0.137229     -2.384426
O       5.83227      5.88993     13.80460         0.026665      0.069161      0.458186
O       5.82624      5.98565      5.11233         0.036751     -0.123964      0.157546
O       5.71960      5.59825      9.62367         0.458299      0.632691     -1.038652
O       5.80095      9.64590      0.78555         0.319960      0.101226     -1.071946
O       5.91359      9.90847     13.81950        -0.318899     -0.369667      0.403637
O       5.72557      9.69405      5.09414         0.538778      0.206073     -0.633550
O       5.72721      9.85522      9.49737         0.349752     -0.304574     -1.069314
O       9.83261      1.82269      0.72137        -0.358921      0.031467      0.152692
O       9.63930      1.91865     13.87958         0.060427      0.055500      0.470447
O       9.74075     13.57983      0.67926        -0.234774      0.201156     -0.033962
O       9.64446     13.53807     13.90201        -0.029238      0.200995     -0.546659
O       9.54244      1.77989      5.11184         0.680751      0.282526     -0.465926
O       9.79753     13.66552      5.14100        -0.735233     -0.349583     -1.506627
O       9.81297      1.91467      9.47575        -0.158180      0.462560     -1.988496
O       9.75869     13.74781      9.48867        -0.496661     -0.155043     -1.244238
O       9.70398      5.80768      0.75639         0.173504     -0.101209     -0.712031
O       9.86432      5.88102     13.98542        -0.146295     -0.062243     -1.295413
O       9.72221      5.81573      5.08199         0.105284     -0.051298     -0.504305
O       9.96760      5.82902      9.47162        -0.342346     -0.141414     -0.974976
O       9.67550      9.67307      0.61173         0.034411      0.242101      0.109351
O       9.65148      9.70867     13.80875         0.022706      0.292379     -0.495351
O       9.54685      9.75952      4.98716         0.250329     -0.093257      0.457191
O       9.76757      9.82388      9.35282        -0.395223     -0.250614     -0.722858
O       3.80771      1.87312      2.88969         0.068196      0.106945     -0.507976
O       3.87894      1.85035     16.22185         0.324796      0.473498     -0.866018
O       3.87905     13.57308      2.92366        -0.465897     -0.044523     -0.324986
O       3.80343     13.72722     16.05959         0.911991     -0.613512     -0.522092
O      15.58593      1.95388      2.88775        -0.077847     -0.356453     -0.122570
O      15.54238      1.86965     16.10972        -0.240448      0.471373     -0.911102
O      15.56216     13.67376      2.87546        -0.026937     -0.855946     -0.705769
O      15.42992     13.65163     16.10352         0.979116     -0.111643     -0.242875
O       3.86171      1.96410      7.35753         0.133806      0.360018     -0.629917
O       3.87303     13.46836      7.31807        -0.761061      0.559884     -0.371574
O       0.01580      1.94973      7.17860        -0.145136      0.149881      0.133958
O      15.55027     13.81064      7.19631         0.658826     -0.910621      0.231644
O       3.84149      1.87630     11.66099         0.273375     -0.117884     -0.177662
O       3.82771     13.69944     11.58713         0.150304      0.010648      0.381288
O      15.52542      1.92053     11.54309         0.318236      0.003406      0.413380
O      15.54584     13.60642     11.73418        -0.535134      0.732962     -0.159405
O       3.85275      5.88041      3.08431        -0.409876     -0.336027     -0.567792
O       3.93867      5.91314     16.11939         0.083094     -0.059811     -0.206564
O      15.51431      5.90836      3.05343         0.797960     -0.229558     -0.385730
O       0.04031      5.80202     16.10086        -0.038733      0.241324     -0.158092
O       3.84360      6.02352      7.38042         0.609366     -0.530559     -0.266640
O      15.53546      5.81010      7.15340        -0.288951      0.328055      0.622979
O       3.85273      5.72902     11.76278        -0.082857      0.501175     -0.108383
O       0.02846      5.86342     11.85041        -0.657906     -0.113030     -0.814660
O       3.85966      9.84642      2.79956        -0.503173     -0.497558      0.049003
O       3.89413      9.77150     16.07044         0.782824     -0.099593     -0.473597
O      15.53576      9.68806      2.59771         0.512865     -0.234638      0.281275
O       0.01339      9.71536     15.99314         0.148016     -0.233213     -0.560630
O       3.90068      9.67753      7.19998        -0.707774      0.381463      0.519627
O      15.51340      9.70686      7.32800         0.776796     -0.232606      0.490627
O       3.85668      9.81191     11.66419         0.285198      0.224434     -0.339686
O      15.59976      9.79528     11.64550        -0.147004     -0.512396     -0.245032
O       7.72020      1.87339      2.89000         0.141855     -0.238285      0.094812
O       7.75119      1.94735     16.20270         0.571858     -0.137869     -0.922003
O       7.67876     13.62862      2.83600         0.548235     -0.069799     -0.355412
O       7.76967     13.48733     16.10164        -0.425052      0.547258     -0.323616
O       7.78591      1.86398      7.14043        -0.465326      0.437760      0.880658
O       7.76398     13.68326      7.30779         0.267155     -0.180097     -0.050022
O       7.78466      1.99297     11.64564         0.620467     -0.105078     -0.563327
O       7.77996     13.68246     11.79242        -0.242135      0.187446     -0.870927
O       7.80972      5.67571      2.93062         0.436365      0.967108      0.185452
O       7.80542      5.75464     16.07224        -1.069549      0.188999     -0.254889
O       7.77250      5.90418      7.22208        -0.143853     -0.346178      0.399476
O       7.90731      5.91355     11.63787        -0.001293     -0.763198     -0.404671
O       7.80674      9.62134      2.89401         0.286595      0.456960     -0.493844
O       7.74828      9.77710     16.09850         0.388256      0.495417     -0.388795
O       7.73043      9.75263      7.22753         0.511941     -0.190635      0.217471
O       7.77498      9.78334     11.61963        -0.704968      0.202556     -0.636207
O      11.66545      1.77395      2.96788        -0.790209      0.536135     -0.370832
O      11.65022      1.90574     15.96484         0.323426     -0.002778      0.094302
O      11.64257     13.63343      2.77146        -0.347905     -0.243515      0.219487
O      11.61870     13.67271     16.04322         0.436773     -0.421662     -0.128046
O      11.69624      1.95104      7.14718        -0.058313      0.322546      0.454282
O      11.66531     13.64938      7.12283         0.597763     -0.077078      0.678417
O      11.66620      1.81045     11.62427         0.708080      0.944942     -0.356286
O      11.60740     13.62201     11.67253         0.400878      0.080377     -0.127605
O      11.64373      5.77879      2.92833        -0.099441     -0.533535     -0.287407
O      11.74306      5.80107     16.07923         0.283568      0.166801      0.280309
O      11.64417      5.90218      7.22919         0.035010     -0.486912     -0.161023
O      11.75547      5.94094     11.78257        -0.328352     -0.852432     -0.953648
O      11.76012      9.68828      2.64710        -1.461415      0.444712      0.003873
O      11.71898      9.63579     15.89220        -0.351244      0.215109     -0.060357
O      11.66463      9.82787      7.03190        -0.307467     -0.971201      0.349756
O      11.64425      9.74359     11.49855        -0.181767      0.327091      0.069478
O       1.93315      3.89019      2.86649        -0.262296     -0.199658     -0.280942
O       2.02521      3.86058     15.94090        -0.124182      0.631688      0.655222
O       1.83262     15.52289      2.75279         0.780436      0.072768      0.064217
O       1.91555     15.59951     16.14686        -0.593452     -0.662758     -0.435594
O      13.60777      3.80283      2.86244        -0.403848      0.607217      0.161496
O      13.67486      3.87132     16.20618         0.009325     -0.189102     -0.714471
O      13.63110     15.49864      3.04452        -0.438000      0.273530     -1.018310
O      13.63152     15.57058     15.89707        -0.288782      0.426479      0.058124
O       1.96571      3.93564      7.32585        -0.345195     -0.121907     -0.002644
O       2.04996     15.57344      7.21359        -0.489817     -0.027413     -0.256526
O      13.67304      3.94335      7.37434        -0.953280     -0.018800     -1.111494
O      13.67603      0.01586      7.28497        -0.114787      0.317438     -0.447934
O       1.93461      3.84004     11.71874        -0.348971     -0.249029      0.186699
O       1.91500      0.01650     11.64881        -0.622201      0.391045      0.045532
O      13.63569      3.89754     11.66200         0.099303     -0.376337     -0.515687
O      13.58428     15.56272     11.56482         0.358760      0.506352      0.269948
O       2.00020      7.76686      2.98984        -0.666832      1.242745     -0.875502
O       2.01311      7.80216     16.10170        -0.212327      0.162587     -0.168662
O      13.46874      7.79387      2.75592         1.016121      0.154612     -0.313229
O      13.66627      7.72205     15.91886         0.314057      0.346177     -0.012970
O       1.87445      7.86048      7.42106        -0.274692     -0.408993      0.029013
O      13.65374      7.74962      7.32160        -0.244649     -0.751527     -0.028834
O       2.04610      7.89045     11.67482        -0.770054     -0.753298     -0.522545
O      13.57820      7.81336     11.64281         0.813782     -0.372100     -0.436726
O       1.84320     11.63242      2.79826         0.323845     -0.156368     -0.019626
O       1.85280     11.70934     15.97345         0.312353     -0.425432      0.287304
O      13.55966     11.63117      2.59921         0.346862      0.250040     -0.000507
O      13.70859     11.59827     15.99163        -0.671776      0.391278     -0.609879
O       1.80766     11.68808      7.17146         0.294565      0.567050      0.438707
O      13.68007     11.62144      7.09388        -0.021775      0.997380      0.919851
O       1.80851     11.79232     11.86245         0.780404     -0.619932     -0.831284
O      13.62310     11.62288     11.66633        -0.219287      0.905820     -0.163059
O       5.76677      3.90838      3.00413         0.131447     -1.497084     -0.348077
O       5.73867      3.91272     16.06754         0.210541     -0.074034     -0.158991
O       5.69398     15.59272      2.95877         0.616004     -0.728928     -0.735934
O       5.90655      0.02284     16.16716        -0.237000     -1.303289     -0.878945
O       5.80980      3.93818      7.27002         0.196388      0.156072     -0.173958
O       5.67713     15.57147      7.20180         0.339466      0.402202      0.252755
O       5.86599      3.85065     11.77594        -0.112088     -0.143284     -0.403068
O       5.85906     15.56816     11.74623        -0.057309      0.333367     -0.349400
O       5.80882      7.76437      3.07604         0.483291      0.810486     -0.660199
O       5.96698      7.86098     16.06873        -0.890860     -0.349996     -0.524842
O       5.82157      7.82949      7.37918         0.201903     -0.479185     -0.200078
O       5.78936      7.79093     11.65808         0.051368      0.332470     -0.635904
O       5.86248     11.66996      2.85492        -0.091421      0.304407      0.076129
O       5.82058     11.73472     16.17521        -0.111143     -0.561689     -0.688450
O       5.82103     11.62942      7.27669         0.263711      0.113474      0.220374
O       5.68666     11.77384     11.61347         0.977827     -0.234450     -0.207065
O       9.62841      3.76304      2.94446         0.982122     -0.017498     -0.153094
O       9.79748      3.93608     16.10171        -0.289135     -1.650924     -0.050423
O       9.65913     15.50478      2.92635        -0.089631     -0.230975     -0.502554
O       9.63996     15.56241     16.10219        -0.177030     -0.010217     -0.532508
O       9.73106      3.84342      7.24458        -0.239737      0.687521     -0.208894
O       9.83340     15.55075      7.28435        -0.521850      0.726287     -0.042387
O       9.94622      3.92340     11.74734        -0.438242      0.115412     -1.508151
O       9.75308      0.09460     11.64863        -0.589413     -0.810345      0.010784
O       9.73080      7.77005      2.74457         0.016627     -0.327738      0.261956
O       9.63742      7.73816     16.19630         0.607659      0.836718     -0.718869
O       9.62323      7.79503      7.25320         0.345235      0.071464     -0.331311
O       9.66821      7.86142     11.61113         0.652716     -0.377512     -0.489713
O       9.67710     11.62913      2.89830         0.044786      0.484086     -0.570156
O       9.83827     11.66106     16.11907        -0.555771     -0.477010     -0.620713
O       9.71806     11.70396      7.24307        -0.607962     -0.266654     -0.024511
O       9.57529     11.76329     11.55668         0.635252     -0.476184     -0.102859
