  # total energy = -7882.87405837 
CRSYTAL
PRIMVEC
    15.3600000000000000    0.0000000000000000    0.0000000000000000
     0.0000000000000000   15.3600000000000000    0.0000000000000000
     0.0000000000000000    0.0000000000000000    17.440000000000000
PRESSURE
-0.514855 -0.446953 -1.28827 0.159138 0.280841 -0.038878
PRIMCOORD
320 1
Pb       3.80552      3.76961      4.41055         0.253876      0.191044     -0.555631
Pb       3.85956      3.73050     17.39917        -0.121214      0.017194     -0.010058
Pb       3.76202     15.29530      4.41686         0.517040      0.016080     -0.846139
Pb       3.74342     15.31373     17.34849         0.407389      0.397011     -0.186962
Pb       0.06208      3.74843      4.38065        -0.372181      0.310800     -0.414716
Pb       0.14521      3.86000      0.05950        -0.128189     -0.180709     -0.751382
Pb       0.07017     15.28391      4.30967        -0.254107      0.550388     -0.152010
Pb      15.15716     15.25599      0.00926         0.944344      0.110393     -0.571256
Pb       3.72179      3.87390      8.73365         0.021399     -0.225788     -0.848166
Pb       3.84386      0.01804      8.75849         0.035207      0.033700     -0.796207
Pb      15.14264      3.98309      8.69446         0.780660     -0.149245     -0.365739
Pb      15.19659      0.11569      8.78187         0.593403     -0.594602     -0.756285
Pb       3.80817      3.75073     12.93052         0.178305     -0.066195      0.655423
Pb       3.70177     15.30728     12.89606         0.221061      0.294949      0.344883
Pb       0.03659      3.68634     13.13406        -0.064765      0.869971     -0.369132
Pb       0.00465     15.31115     13.00972         0.020902     -0.114320     -0.304672
Pb       3.85215      7.64110      4.31659         0.176821      0.391288     -0.280561
Pb       3.69321      7.54750     17.39550         0.743009      0.138758     -0.189177
Pb       0.14963      7.78154      4.32328        -0.051769     -0.183353     -0.231758
Pb      15.20178      7.66228     17.38839         0.157590      0.145413     -0.724006
Pb       3.89185      7.70471      8.73659        -0.411054     -0.037462     -0.168547
Pb      15.34060      7.65714      8.72400         0.082206     -0.051764     -0.555099
Pb       3.78436      7.55825     13.00175         0.374912      0.646905      0.091307
Pb       0.02736      7.60559     13.16283        -0.282797      0.037823     -0.659081
Pb       3.71732     11.53439      4.32347         0.294142     -0.414446     -0.369448
Pb       3.91056     11.43894     17.34224        -0.212306      0.516857      0.163014
Pb      15.35638     11.62273      4.27072         0.186967     -0.630742      0.302539
Pb      15.21043     11.51915     17.31453         0.723923     -0.075793     -0.634015
Pb       3.80569     11.55157      8.73461         0.295184     -0.078029     -0.486382
Pb      15.27143     11.39478      8.76138         0.241205      0.405043     -0.785617
Pb       3.86949     11.44148     12.97567         0.256041      0.007219     -0.160356
Pb       0.15420     11.51007     13.12090        -0.244904      0.186630     -0.694512
Pb       7.73131      3.66598      4.39785        -0.186890      0.373228     -1.060463
Pb       7.58105      3.83390     17.43480         0.133838     -0.046432     -0.245078
Pb       7.75509     15.31514      4.41495        -0.581855     -0.090407     -0.868574
Pb       7.51185     15.32183     17.39806        -0.089589      0.367298     -0.244427
Pb       7.65568      3.85705      8.68452        -0.230303     -0.362942     -0.564075
Pb       7.65766     15.29796      8.64196        -0.014844      0.460628     -0.215625
Pb       7.82479      3.98575     13.17431        -0.229346     -0.292503     -0.722730
Pb       7.57041      0.18871     13.00108         0.608805     -0.103192     -0.271617
Pb       7.67851      7.52177      4.30257        -0.094454      0.034099     -0.493544
Pb       7.54071      7.70401     17.43810         0.236097     -0.094058     -0.426298
Pb       7.63961      7.77131      8.69048         0.133694     -0.197974     -0.388584
Pb       7.59435      7.65374     12.96412         0.247913      0.036159      0.201536
Pb       7.71437     11.41093      4.40020         0.022506      0.500852     -0.621341
Pb       7.56782     11.57066     17.39681        -0.122156     -0.108960     -0.038551
Pb       7.64789     11.53770      8.68828        -0.030901      0.005552     -0.476037
Pb       7.76076     11.54348     13.00162        -0.013669     -0.250476     -0.471423
Pb      11.46914      3.73087      4.31173        -0.037177      0.596766     -0.547536
Pb      11.63125      3.80474      0.09028        -0.338389      0.149955     -0.616497
Pb      11.54103     15.24500      4.33355        -0.073405      0.039911     -0.404096
Pb      11.35105     15.24280      0.01871        -0.015672      0.474460     -0.980176
Pb      11.42736      4.01535      8.71231         0.413446     -0.363936     -0.948015
Pb      11.45167     15.33080      8.67624         0.179524      0.192821     -0.534836
Pb      11.59253      3.70350     13.27266        -0.169884      0.102223     -1.180597
Pb      11.51568     15.33380     13.03417        -0.047656      0.225795     -0.637772
Pb      11.48973      7.68722      4.22025         0.011221     -0.749464     -0.124505
Pb      11.47813      7.61327      0.07012        -0.085186     -0.053037     -0.862949
Pb      11.52925      7.69624      8.70157         0.385205     -0.066950     -0.771886
Pb      11.41313      7.63699     13.11572         0.415339      0.280647     -0.817640
Pb      11.56758     11.40760      4.32017        -0.388135      0.649679     -0.082872
Pb      11.32944     11.45924     17.40044         0.364391      0.319831     -0.621788
Pb      11.56312     11.52460      8.74670         0.154209      0.066378     -0.612808
Pb      11.51502     11.45477     13.02983         0.229371     -0.162500     -0.624257
Ti       1.85956      1.94179      2.24733         0.518059     -0.696194     -0.261798
Ti       1.87575      1.88764     15.37918         0.621556     -0.319780      0.820495
Ti       1.88792     13.44924      2.17736         1.496751      0.033618     -0.000629
Ti       1.96392     13.46292     15.30840        -0.429689     -0.386156      1.326575
Ti      13.37670      1.87264      2.24614         0.287571      0.127043      0.420027
Ti      13.39110      1.89851     15.44515         0.130391     -0.271535      0.368428
Ti      13.40621     13.31639      2.22907        -0.516434      0.744873      1.027789
Ti      13.39735     13.49188     15.22984         0.301810     -0.753962      1.603700
Ti       1.86742      1.86198      6.61922         0.108628      0.537970      1.037317
Ti       1.95131     13.42372      6.71764        -1.019209     -0.086761      1.720882
Ti      13.43462      1.94874      6.62322        -0.312387     -0.098678      1.258763
Ti      13.45989     13.42169      6.61886         0.853948     -0.337957      0.165385
Ti       1.83326      1.92321     10.91995         0.334863     -0.107061      1.111235
Ti       1.95571     13.41306     10.90219        -0.705622     -0.023803     -0.389319
Ti      13.46607      1.97341     10.97141        -0.842720     -0.305486      1.182989
Ti      13.47170     13.40019     10.95336         0.201034     -0.230021      0.718381
Ti       1.94128      5.75458      2.29200         0.015301     -0.086720      0.309152
Ti       1.92641      5.75246     15.34658         0.061059     -1.131647      0.280567
Ti      13.51381      5.76126      2.26108        -0.769930     -0.370156      0.443200
Ti      13.44980      5.72853     15.31303        -0.004809      0.533383      0.956299
Ti       1.98006      5.75678      6.54810        -1.480040     -0.279759      0.607650
Ti      13.45357      5.81494      6.55047         0.108196     -0.200641      0.209747
Ti       1.93004      5.73780     11.03641        -1.214612     -0.240564     -0.415768
Ti      13.44954      5.78513     11.02942         0.196364     -0.087751      1.345262
Ti       1.96709      9.63631      2.17751         0.386191     -0.626388      0.929802
Ti       2.04060      9.57005     15.38494        -0.981163      0.556109      0.818655
Ti      13.44720      9.54536      2.25454         0.581374     -0.283530     -0.066664
Ti      13.43946      9.64963     15.35661        -0.067633     -0.677497     -0.625694
Ti       1.98550      9.54299      6.78503        -0.758509      0.350796     -0.876216
Ti      13.41423      9.57977      6.55824         1.133175     -0.086464      1.987321
Ti       1.94383      9.60223     10.96253         0.164556     -0.556719      0.743949
Ti      13.53532      9.53263     11.04821        -0.639997      0.670355      0.379961
Ti       5.61558      1.87550      2.34857         1.029840     -0.573933     -0.517185
Ti       5.74413      1.95072     15.21813        -0.901943      0.772059      0.537623
Ti       5.69941     13.40923      2.29500         0.929058      0.688569     -0.282763
Ti       5.76433     13.50909     15.17411        -0.539027     -0.012779      1.449160
Ti       5.67647      1.89721      6.61301         0.764027      0.270629      0.768936
Ti       5.73884     13.42638      6.58681         0.322151      0.120539      0.618548
Ti       5.69105      1.93777     11.00586         0.719931     -0.156825     -0.568651
Ti       5.79145     13.46213     10.98562         0.282779     -0.301534      1.106689
Ti       5.76744      5.70416      2.27561         0.411455      0.053069      0.703294
Ti       5.76401      5.73454     15.37429         0.019434      0.003176     -0.386034
Ti       5.73938      5.83143      6.72343         0.179560     -1.469815     -0.675367
Ti       5.71794      5.68022     10.99141         1.886867      0.833528      0.769826
Ti       5.78287      9.62003      2.33601        -0.233504     -0.188444     -0.776990
Ti       5.81755      9.67178     15.31216        -0.016394     -1.292150      0.424499
Ti       5.78106      9.59548      6.62275        -0.103967      0.431007      1.055841
Ti       5.80352      9.57837     11.02403         0.282677      0.261637      0.477399
Ti       9.52584      1.85888      2.26701         0.049178      1.031024      0.755920
Ti       9.55822      1.98790     15.36784        -0.494962     -1.174376      1.385245
Ti       9.58960     13.45419      2.20452        -1.014205     -0.500178      1.452483
Ti       9.49659     13.42909     15.31464         0.431101      1.187018      0.607169
Ti       9.56882      1.96494      6.69109         0.293940     -1.191101     -0.205681
Ti       9.62762     13.40891      6.65156         0.524542     -0.129607      0.093302
Ti       9.65394      1.97058     10.92001        -0.584444      0.337092      2.053251
Ti       9.63344     13.47092     11.02392         0.093624     -0.343125     -0.288154
Ti       9.64402      5.76546      2.20011        -0.763792     -0.738918      1.278799
Ti       9.59678      5.76833     15.41105        -0.287690      0.234959      1.222492
Ti       9.54945      5.78089      6.55768         1.052407      0.038546     -0.219110
Ti       9.57735      5.80743     10.91334         0.207769     -0.617416      0.828483
Ti       9.58091      9.67189      2.29435        -0.587741     -0.747302      1.488064
Ti       9.61349      9.59337     15.34069        -0.869053      0.010098      0.357708
Ti       9.67818      9.56182      6.54455        -0.386982      0.576937      0.222879
Ti       9.65401      9.56207     10.88146        -0.091743      0.743047      2.632749
O       2.01963      1.93039      0.45613        -0.704790     -0.077572      1.145309
O       1.89801      1.87684     13.60003        -0.092896      0.063570     -0.019753
O       1.93000     13.48354      0.42308        -0.298249     -0.231093      0.656139
O       1.95361     13.54210     13.55767        -0.126131     -0.262556     -0.619851
O      13.31320      1.97586      0.47929         0.265460     -0.240343      0.126748
O      13.27222      1.87074     13.65001         0.607589      0.028636      0.923799
O      13.47722     13.22389      0.47236        -0.176891      0.441865      0.401940
O      13.55804     13.61137     13.49821        -0.322384     -0.360481     -0.271091
O       1.80007      1.88206      4.85493         0.156543     -0.323841     -0.750916
O       2.07937     13.36100      4.95773        -0.350567      0.166420     -0.564674
O      13.46149      1.87646      4.87025         0.057440      0.016707     -0.209790
O      13.43996     13.36874      4.78364         0.114745      0.227429      1.195899
O       1.81230      1.95565      9.19302         0.421829      0.127057     -0.129441
O       1.80245     13.43117      9.12270         0.755195     -0.127066      0.894425
O      13.48185      1.98486      9.21973        -0.157417      0.143350      0.087257
O      13.51290     13.39716      9.19634        -0.269225      0.196369     -0.312302
O       1.94343      5.55884      0.51440        -0.185144      0.823832      0.395025
O       1.87117      5.75297     13.55966         0.233735     -0.124387      0.186851
O      13.35647      5.78852      0.43438         0.392094      0.142340      0.804705
O      13.53643      5.79094     13.55400        -0.259265     -0.108417      0.194344
O       1.83045      5.84631      4.77132         0.361747     -0.214489      0.305828
O      13.51824      5.82015      4.79308        -0.184597     -0.148262      0.477427
O       1.87876      5.66674      9.26200         0.522423     -0.036182      0.399358
O      13.50798      5.80552      9.25255        -0.511344     -0.185105      0.243134
O       2.01589      9.72270      0.43954        -0.172252     -0.622783     -0.383769
O       2.12475      9.50544     13.63107        -0.432663      0.304545     -0.130013
O      13.43756      9.55836      0.45897        -0.047220      0.051752      0.588930
O      13.43337      9.57247     13.58328         0.080665      0.249767     -0.037672
O       2.06378      9.46832      4.97715        -0.246913      0.569128      0.747941
O      13.49095      9.63174      4.82620        -0.055585     -0.139556     -0.640971
O       1.88181      9.51759      9.20643         0.383574      0.281091      0.319344
O      13.43874      9.41056      9.27913         0.048478      0.336374      0.276304
O       5.64913      1.80877      0.54432         0.177260      0.174389      1.140399
O       5.71417      2.01516     13.40837         0.067867     -0.303860      0.566494
O       5.73114     13.43703      0.49404         0.154238      0.288389      0.401154
O       5.82647     13.38208     13.42047        -0.125143      0.386521      0.675620
O       5.69161      1.86197      4.84202         0.061069      0.142461      0.001135
O       5.69632     13.48222      4.82673        -0.081029     -0.335095      0.545203
O       5.62092      1.87811      9.19401         0.388560      0.352565      1.161304
O       5.86380     13.47850      9.25405        -0.234975     -0.076994     -1.050519
O       5.76345      5.78378      0.51083         0.053016      0.015569      0.165825
O       5.88344      5.67824     13.57251        -0.342766      0.005121      0.557741
O       5.77018      5.88810      4.96822        -0.050281     -0.192645      0.069104
O       5.74635      5.73250      9.23773        -0.035049     -0.064212     -0.869554
O       5.80256      9.60022      0.51777        -0.057434     -0.168594      0.786431
O       5.78545      9.66823     13.54483        -0.020128      0.018392      0.304880
O       5.65897      9.55640      4.89560         0.382895      0.197770     -0.317732
O       5.86227      9.61195      9.26035        -0.095033     -0.236523     -0.129267
O       9.46612      1.86781      0.53373         0.167513      0.065371     -0.632599
O       9.60266      2.00135     13.62429         0.340902     -0.121793     -0.364617
O       9.53607     13.32617      0.43593         0.225163      0.349838      0.396159
O       9.44273     13.43936     13.56694         0.265306      0.032023     -0.624320
O       9.57151      1.77920      4.88254         0.132784      0.484952      0.336074
O       9.76327     13.37903      4.89731        -0.292999      0.765144     -0.087148
O       9.52798      2.05403      9.18823         0.642756      0.153313     -0.219974
O       9.71968     13.33841      9.22338        -0.133664      0.123844      0.483313
O       9.45309      5.74227      0.45494         0.716381      0.013646     -0.376237
O       9.49948      5.73359     13.64590         0.278681      0.525066      0.145606
O       9.72804      5.74432      4.76799        -0.591092      0.112305      1.259866
O       9.59940      5.73798      9.12021        -0.043031     -0.022361      0.293961
O       9.54130      9.67634      0.57174         0.229836      0.316467     -0.666027
O       9.58739      9.62702     13.57599         0.266155     -0.228854      0.288965
O       9.59740      9.58080      4.75665         0.358170     -0.007333      0.473382
O       9.71319      9.69560      9.16149        -0.145342     -0.279700     -0.897222
O       3.76464      2.05000      2.74851        -0.050037     -0.244442      0.110968
O       3.78152      1.98103     15.79903         0.298089     -1.038431     -0.620208
O       3.87850     13.38354      2.62912        -1.752181     -0.153544      0.380220
O       3.85370     13.50218     15.70790         0.918595      0.131357     -0.468186
O      15.33498      1.79370      2.63980        -0.045251     -0.263559      0.017428
O      15.31975      1.90636     15.85676        -0.310450      0.179332     -0.303638
O       0.07301     13.55568      2.76027        -0.910746     -0.722201     -0.645751
O      15.33874     13.39868     15.74956        -0.309394     -0.156785     -0.146160
O       3.83431      1.86338      7.05729        -0.698177      0.165310     -0.043600
O       3.89757     13.47536      7.15058        -0.633272     -0.266069     -0.126265
O       0.08383      1.98666      7.16681        -1.747256     -0.051177     -0.557145
O       0.02384     13.41350      7.02820        -0.542688     -0.186518     -0.528512
O       3.77101      1.89119     11.32690         0.366579     -0.033718     -0.036238
O       3.85495     13.55486     11.31354         0.006875     -0.242800     -0.127857
O      15.35251      2.03151     11.55183        -0.388881     -0.688352     -0.794098
O       0.11990     13.28466     11.40046        -1.093770      0.383633      0.238727
O       3.86378      5.62430      2.69838        -0.109149      0.102893      0.036395
O       3.79274      5.75785     15.81901         0.212201     -0.125134     -0.392819
O      15.33165      5.94382      2.63612         1.084657     -0.201413     -0.326576
O      15.34381      5.72098     15.82542         0.179778     -0.099841     -0.125982
O       3.81888      5.75331      7.10638        -0.073280      0.185366     -0.029587
O       0.01678      5.77519      7.11602        -0.148981     -0.171678     -0.542415
O       3.92392      5.78026     11.39097        -1.576464     -0.225371      0.079973
O       0.02623      5.70823     11.41306        -0.061183     -0.271213      0.128579
O       3.92001      9.61937      2.74656        -0.858049      0.182913     -0.283591
O       3.84839      9.52951     15.85522         0.872006     -0.087293     -0.313828
O       0.14576      9.51306      2.63699        -1.377621     -0.244161     -0.115184
O      15.33465      9.58810     15.78330         0.823597      0.232488     -0.120115
O       3.91298      9.61560      7.19576        -0.490019     -0.291138      0.009522
O       0.00129      9.59748      7.18294        -0.212445     -0.157470     -0.646238
O       3.88411      9.47665     11.43212        -0.522897      0.356555     -0.305332
O       0.10079      9.77693     11.46920        -0.076244     -0.504515     -0.113138
O       7.68443      1.80710      2.77327        -0.001132      0.114943      0.037253
O       7.58076      2.00102     15.62506         0.586635      0.238411      0.199935
O       7.68419     13.56405      2.70997         0.873597     -0.184516     -0.178132
O       7.58881     13.43080     15.82397        -0.692998      0.022152     -0.639377
O       7.70030      1.91337      7.12759        -0.970113      0.000388     -0.233457
O       7.73747     13.48116      6.96978        -0.861846     -0.445908      0.145144
O       7.80781      1.90721     11.35347        -0.889148      0.041774     -0.065898
O       7.69818     13.42756     11.30812         0.776471      0.070341      0.208727
O       7.72871      5.77914      2.73839        -0.714217     -0.100534     -0.108550
O       7.65054      5.64177     15.86211        -0.137236      0.284806     -0.398319
O       7.67454      5.89678      7.02407         0.153270     -0.363492      0.101411
O       7.73295      5.75129     11.35185        -0.907811      0.084856      0.009873
O       7.68761      9.66350      2.76783         0.146705     -0.558203     -0.024279
O       7.68603      9.60028     15.79550        -0.812919      0.343059     -0.276430
O       7.74391      9.70179      6.98541        -0.207638     -0.643302      0.145300
O       7.73208      9.63196     11.31273        -0.217535      0.245645      0.003192
O      11.53849      2.01005      2.65760        -0.117510      0.008501      0.107940
O      11.42086      1.77378     15.89784         0.607837      0.423737     -0.343404
O      11.53780     13.25659      2.66894         0.058437      0.063959     -0.482901
O      11.48250     13.54253     15.70126        -0.022136     -0.231173     -0.205031
O      11.47499      1.95049      7.07775         0.787877     -0.102027     -0.105830
O      11.61694     13.49235      7.01461        -0.426409      0.185275      0.355912
O      11.62459      1.97291     11.60952        -1.089232     -0.186214     -1.023060
O      11.57813     13.35030     11.45804        -0.560856      0.619214     -0.063590
O      11.53459      5.70625      2.62200         0.503221      0.079661     -0.084574
O      11.55209      5.78627     15.76177        -0.660064      0.283604     -0.147685
O      11.52673      5.72947      7.00394        -0.167955      0.010383      0.199083
O      11.50958      5.98745     11.33966         0.105357     -0.220652     -0.077214
O      11.53554      9.54777      2.65436        -0.042429      0.924289     -0.214115
O      11.44231      9.71753     15.82160         0.404733     -0.640010     -0.119508
O      11.57156      9.63084      7.08299        -0.496066     -0.410058     -0.390571
O      11.62102      9.51363     11.48428        -1.124416     -0.125553     -0.307211
O       1.77566      3.81128      2.67993        -0.107177      0.311492      0.250978
O       2.00051      3.75355     15.81678        -1.154589      1.209508     -0.364747
O       2.07553     15.32936      2.69963        -0.558199      0.079770     -0.122200
O       1.81433     15.29145     15.79350         0.295656      0.982595     -0.040681
O      13.59764      3.87576      2.67446        -0.358894     -0.541829     -0.236522
O      13.35727      3.81503     15.76922        -0.101499     -0.204000     -0.271443
O      13.26754     15.27253      2.60409         0.584316      0.160523     -0.272850
O      13.48720     15.32683     15.90577        -0.548698      0.067868     -0.544430
O       1.92827      3.83892      6.72484         0.488395      0.593772      0.677998
O       1.80583     15.35848      7.11461         0.776873     -0.472894     -0.456730
O      13.42956      3.84091      7.08896         0.009551      0.262391     -0.424370
O      13.47919      0.06086      7.18130        -0.067677     -0.372383     -0.739029
O       1.96139      3.79144     11.40864         0.082082      0.269240      0.043978
O       1.85843     15.32247     11.37265        -0.116831      0.712769     -0.266840
O      13.36624      3.86399     11.52657         0.297345      0.353871     -0.474803
O      13.45699     15.34521     11.30456         0.404753      0.548959      0.096997
O       2.10071      7.63657      2.71671        -0.370225      0.360708     -0.819134
O       1.93400      7.60013     15.75433        -0.353605      0.763661      0.208110
O      13.38707      7.70586      2.72113         0.155952      0.104837     -0.482735
O      13.45775      7.73526     15.66199        -0.181260     -1.084632      0.597900
O       1.84368      7.67950      7.09862         0.839613     -0.658669      0.063200
O      13.42668      7.67076      7.06753        -0.091838      0.002258     -0.301043
O       1.87029      7.61249     11.39144         0.355805      0.930020      0.137406
O      13.62896      7.70150     11.50181        -0.043247     -0.608535     -0.081288
O       1.83958     11.46924      2.66987         0.563589      1.240743      0.091815
O       2.06964     11.54963     15.72779        -0.577398     -0.755510     -0.457247
O      13.56346     11.43700      2.73166         0.026131      0.335256     -0.396157
O      13.41308     11.52071     15.60991        -0.033221      1.029061      0.296567
O       1.96440     11.46732      7.23290         0.123449      0.580126     -0.554333
O      13.44887     11.45135      7.06872        -0.013492      0.985724     -0.184543
O       2.05762     11.51805     11.45469         0.261995     -0.398772     -0.349949
O      13.39157     11.52785     11.22827         0.308629     -0.716192      0.635614
O       5.84270      3.80034      2.71735         0.056411      0.208172      0.124327
O       5.63884      3.80008     15.90071         0.549826      0.343995     -0.682587
O       5.73096     15.35368      2.79500        -0.575151      0.297792     -0.144041
O       5.72443      0.14488     15.69237         0.183826     -2.117340     -0.459892
O       5.76941      3.80526      6.90462        -0.010567      0.614485      0.598295
O       5.70814     15.34092      7.06753         0.512286     -0.260091     -0.066640
O       5.74989      3.84086     11.42169        -0.047068     -0.550068     -0.559471
O       5.80799      0.04630     11.44044        -0.178696      0.131869     -0.281458
O       5.79724      7.66122      2.81583        -0.114747     -0.142191     -0.651701
O       5.74419      7.59512     15.63910         0.205180      1.071681      0.438452
O       5.69539      7.69059      7.21024         0.570948      0.530670     -0.244797
O       5.81597      7.66628     11.45896        -0.083552     -0.171730     -0.389843
O       5.80523     11.54764      2.58027         0.271526     -0.614115      0.668998
O       5.71038     11.52613     15.78842         0.086370      0.254874     -0.833599
O       5.73886     11.49904      7.09591         0.227242      0.526295     -0.216073
O       5.73333     11.54604     11.35437        -0.168044     -0.386114      0.019276
O       9.57012      3.85216      2.69194         0.043852     -0.933456      0.157045
O       9.57899      3.87628     15.76848         0.339650     -0.441134     -0.002359
O       9.77896     15.34921      2.60459         0.031592     -0.820932      0.166160
O       9.37063     15.35836     15.75718         0.578854      0.035129      0.156764
O       9.57030      3.82809      6.94520        -0.226156      1.363132      0.275212
O       9.55073      0.02816      7.17880         0.684806     -0.576846     -0.199436
O       9.56338      3.94566     11.52644         1.049454     -0.570507     -0.928549
O       9.74001      0.02127     11.29822        -0.055844      0.011983     -0.008459
O       9.65587      7.63153      2.55902        -0.050057      1.257765      0.275801
O       9.47633      7.72976     15.89680         0.776537     -0.548726     -0.542886
O       9.68751      7.69552      6.96651        -0.233418      0.027869      0.084103
O       9.44440      7.72484     11.41061         0.900489     -0.282705     -0.464217
O       9.50771     11.58543      2.82930         0.505544     -0.650736     -0.702995
O       9.51697     11.59220     15.73841         0.187946     -0.992445      0.113418
O       9.73033     11.52280      6.86867        -0.205041     -0.224864      0.587988
O       9.66799     11.48489     11.49777        -0.041392      0.011748     -0.504950
