  # total energy = -7872.82364721 
CRSYTAL
PRIMVEC
    15.2000000000000000    0.0000000000000000    0.0000000000000000
     0.0000000000000000   15.2000000000000000    0.0000000000000000
     0.0000000000000000    0.0000000000000000    17.000000000000000
PRESSURE
7.78502 8.02944 6.43869 0.136726 -0.122921 -0.093702
PRIMCOORD
320 1
Pb       3.60919      3.86704      4.34869         0.202168     -0.149652     -0.568315
Pb       4.03315      3.93393     16.98715        -1.057101     -0.558013      0.437934
Pb       3.61186      0.25609      4.37251         0.161780     -0.796114     -0.991474
Pb       3.89305     15.14733     16.93258        -0.085980      0.343821     -0.345969
Pb       0.09534      3.91007      4.21192        -0.574095     -0.628157     -0.233360
Pb       0.24649      3.94706     16.92417        -1.289291     -1.163951      0.080042
Pb      15.13689      0.29042      4.57870        -0.265894     -0.438406     -1.156827
Pb       0.08338     15.04755     16.95917        -0.190464      0.699555     -0.405942
Pb       3.99197      3.89843      8.35647        -0.629305     -0.184652     -0.017493
Pb       3.86674     14.96532      8.77278        -0.594744      0.350714     -0.438815
Pb       0.18841      3.58803      8.72596        -0.573885      1.037470     -1.154767
Pb      14.83220     15.13144      8.49621         1.270041     -0.515259     -0.365344
Pb       3.85085      3.60696     12.52378         0.536029      1.052346      0.204295
Pb       3.81639      0.06002     12.89100         0.209555     -0.340628     -0.723937
Pb      15.13340      3.91141     12.68824        -0.002955     -1.466674      0.065306
Pb       0.09822     15.19157     12.93358        -0.431703     -0.119915     -1.042553
Pb       3.69430      7.66409      4.37642        -0.187547      0.035471     -0.485678
Pb       3.72616      7.64425     16.95870         0.823668      0.030510      0.201859
Pb      15.03838      7.85627      4.39863         0.296487     -0.225371     -0.812552
Pb      15.07521      7.43519     16.83658         0.396879      1.001502      0.632692
Pb       3.87916      7.58262      8.30103        -0.912447     -0.087846      0.588666
Pb      15.01980      7.50039      8.49287         0.563600      0.083304      0.746550
Pb       3.64790      7.42122     12.65523         0.713585      0.233592     -1.041649
Pb       0.01656      7.39466     12.81192         0.000211      0.680076     -1.069962
Pb       3.48235     11.49059      4.39927         0.569854     -0.245263     -0.842303
Pb       4.10630     11.45726      0.30232        -0.727512     -0.298036     -0.397900
Pb      15.12878     11.50243      4.22420         0.122791      0.001894     -0.311666
Pb       0.15126     11.34807     16.85169        -0.178766      0.259968      0.144277
Pb       3.62891     11.39287      8.57205         0.472508     -0.187818      0.167501
Pb      15.09339     11.37470      8.63435         0.194428     -0.090172     -0.138428
Pb       3.69346     11.26651     12.69490         0.259970      0.033172     -0.883462
Pb      15.11185     10.95739     13.05322         0.457644      1.166727     -1.784984
Pb       7.55388      3.84298      4.29718        -0.167883     -0.577762     -0.681996
Pb       7.59836      3.79642      0.15725        -0.040236     -0.074820     -0.862469
Pb       7.55085     15.08039      4.24557         0.282375      0.261175      0.006579
Pb       7.69784     15.06609     16.96895        -0.644885      0.440276     -0.458165
Pb       7.71901      3.57297      8.40148        -0.760115      0.834494     -0.021413
Pb       7.66850      0.02449      8.55044        -0.489694     -0.384952     -1.312617
Pb       7.72726      3.76150     12.79962        -1.119606      0.541246     -0.545301
Pb       7.58432     15.07723     12.89063        -0.208293      0.269545     -0.592998
Pb       7.77111      7.46851      4.02728        -0.716705      0.688487      1.227717
Pb       7.69610      7.73214      0.18219        -1.101285     -0.475162     -1.125337
Pb       7.52158      7.64297      8.23644         0.034374     -0.020281      0.627941
Pb       7.42622      7.62713     12.63427         0.345905     -0.761958     -0.134499
Pb       7.44568     11.36419      4.31315         0.485386      0.236425     -0.343275
Pb       7.51428     11.50083      0.02024         0.679742     -0.352786     -0.339319
Pb       7.60599     11.54189      8.67460        -0.309980     -0.360725     -1.233583
Pb       7.60639     11.33645     12.73868        -0.280593      0.343779     -0.731018
Pb      11.37048      4.04781      4.05627        -0.011396     -1.556963      0.234691
Pb      11.30019      3.59105     16.96244         0.311207      0.299402     -0.079281
Pb      11.52418     15.13579      4.10022        -0.126622      0.686799      0.616018
Pb      11.44560     15.18387     16.97691         0.116476      0.170428     -0.120016
Pb      11.48208      3.79801      8.46479        -0.235888      0.047475      0.039111
Pb      11.32803      0.04196      8.45327        -0.371228      0.034924     -0.553603
Pb      11.25899      3.60530     12.81157         0.750488      0.358083     -0.710087
Pb      11.38989     15.19615     12.64446         0.400209     -0.037294     -0.003270
Pb      11.52369      7.50789      4.06115        -0.835078      1.384595      0.643702
Pb      11.42554      7.57010     16.92447        -0.229537      0.120571     -0.329966
Pb      11.27487      7.49788      8.73936         0.341690      0.437077     -0.929790
Pb      11.37830      7.62775     12.99365        -0.264395     -0.201400     -1.091880
Pb      11.37251     11.28212      4.16470        -0.206222     -0.032799     -0.158240
Pb      11.50611     11.46202     16.66912        -0.567493     -0.289862      1.113419
Pb      11.30011     11.42762      8.53595        -0.057208     -0.699609     -0.247126
Pb      11.22934     11.15635     12.44430         0.916666      0.799853      0.977150
Ti       1.84145      1.85952      1.99410         0.136163      0.488350      0.907064
Ti       1.87647      1.95366     14.84677         0.332916     -0.701100      3.119843
Ti       1.88292     13.28478      2.09872         0.637771      1.067210      2.797756
Ti       1.92242     13.27469     14.84194         0.386272     -0.273670      1.458708
Ti      13.32115      1.94909      2.04608        -0.283277     -0.648933      1.646538
Ti      13.32946      1.83420     14.89248         0.553393      1.040219      1.202482
Ti      13.39696     13.30265      2.16875         0.072758      0.833668      0.867414
Ti      13.38918     13.32824     14.84726         0.328667     -0.757601      0.070801
Ti       1.87952      1.87251      6.60776        -0.303196      0.701971      0.814014
Ti       1.87458     13.32652      6.65749        -1.232396      0.127984      0.607923
Ti      13.15151      1.97935      6.43099         1.148564     -0.214570      0.152012
Ti      13.13804     13.21273      6.54505         1.848909      0.474805      0.067178
Ti       1.89354      1.81683     10.62941         0.211402     -1.126334      0.105818
Ti       1.77390     13.19903     10.88832         0.391802      0.294187     -0.610823
Ti      13.30038      1.79442     10.56756        -0.572182      0.488823      2.376436
Ti      13.29576     13.14578     10.81458         0.259769     -0.040419      1.781363
Ti       1.78835      5.76427      2.26547         1.001548      0.094453      1.185903
Ti       1.97150      5.66632     14.96989        -0.012898     -0.076956     -0.076081
Ti      13.32719      5.75173      2.09205        -0.431346     -0.032159      0.031072
Ti      13.20489      5.60805     14.87507         0.021491     -0.458470      2.558703
Ti       1.69653      5.73239      6.51590         0.342582     -0.804832      0.815190
Ti      13.18259      5.69517      6.42691         1.159841      0.994373      1.343242
Ti       1.87542      5.59482     10.61560         0.876257      1.440916      0.948289
Ti      13.16248      5.61845     10.83100        -0.192238      0.100617     -0.444213
Ti       1.74881      9.45442      2.02644         0.604832      0.637200      1.271357
Ti       1.96842      9.39380     14.94350         0.444881      0.765840      0.586212
Ti      13.19710      9.55483      1.94756         0.600007     -0.215009      2.862889
Ti      13.32262      9.47575     14.93985        -1.449266      0.045491     -0.212685
Ti       1.74624      9.55256      6.55624         1.377435     -0.317972      1.426712
Ti      13.21780      9.49464      6.46791        -0.469103     -0.773154      1.048638
Ti       1.81555      9.36722     10.61213         0.240209      0.364877      1.193691
Ti      13.24523      9.32460     10.69847         0.711851      1.030191      0.763324
Ti       5.60061      1.85165      2.19244         0.796507      0.162632      1.643306
Ti       5.68961      1.88589     15.07929         0.096728     -0.157535      1.181271
Ti       5.68886     13.33135      2.31808         0.081291     -0.277400      1.059648
Ti       5.68850     13.21861     14.91043        -0.139364      1.512918      0.493154
Ti       5.60545      1.86556      6.38172         0.956373      0.274495      0.464558
Ti       5.57573     13.33773      6.44827         1.623097     -0.578312      0.955953
Ti       5.73005      1.86976     10.55955        -0.107592      1.095881      1.539194
Ti       5.62790     13.29153     10.78545        -0.494176     -0.777324      0.174889
Ti       5.62595      5.63884      2.31811        -0.331087      0.862296      1.283852
Ti       5.71095      5.75365     14.89037         0.626613     -0.370978     -0.409408
Ti       5.71346      5.73943      6.38125        -0.522933     -0.737496      2.115066
Ti       5.81801      5.67946     10.53771        -1.238712     -0.479095      1.999416
Ti       5.52483      9.47108      2.38438         0.247972      0.446578      1.114285
Ti       5.67516      9.49191     14.77664         0.290355     -1.067148      1.566647
Ti       5.68667      9.62959      6.41002         0.047036     -0.637999      1.949939
Ti       5.67397      9.43229     10.50545        -1.234102      0.548633      1.326757
Ti       9.45951      1.86380      2.26403         0.317664      0.398983      0.789682
Ti       9.46384      1.84535     14.93449        -0.336183      0.516236      1.553129
Ti       9.61115     13.27747      2.17415        -0.767124     -0.234670      1.768297
Ti       9.58623     13.24431     14.83989        -1.440572      0.248114      0.647362
Ti       9.48196      1.88036      6.30208        -0.317541     -1.240300      0.805533
Ti       9.46022     13.22940      6.47535        -0.732966     -0.043022      0.380793
Ti       9.45053      1.88492     10.72002         0.049799     -0.528657      0.237152
Ti       9.49326     13.40131     10.64039         0.118325     -1.490533      2.689849
Ti       9.48938      5.70167      2.01158         0.163568     -0.303534      1.462403
Ti       9.47922      5.64212     14.96107        -1.236427      0.213144      0.809332
Ti       9.46315      5.59012      6.48201        -0.243578      1.633736     -0.124436
Ti       9.44431      5.70272     10.60231        -0.323385     -0.260898      1.518335
Ti       9.38138      9.54123      2.10709         1.078715      0.886433      1.584873
Ti       9.37253      9.48942     14.89774         1.204771      0.323708      0.819566
Ti       9.52465      9.35713      6.40151        -0.402128      1.607603      2.071655
Ti       9.34814      9.49846     10.56339         1.436611     -0.798467     -0.014918
O       1.79946      2.10091      0.21771         0.129792     -0.825458      1.140541
O       1.95942      1.93014     13.13830        -0.132919     -0.032611     -2.523932
O       1.76003     13.21540      0.40805         0.362120      0.107418     -2.480211
O       1.88360     13.38393     13.12119         0.063716     -0.337198     -1.041503
O      13.28482      1.73797      0.30299        -0.121896      0.149358     -0.639992
O      13.28436      1.75264     13.17216        -0.086519      0.441931     -1.229452
O      13.41952     13.43755      0.42034        -0.255745     -0.203155     -0.690106
O      13.44666     13.18056     13.11681        -0.482522      0.281183      0.250219
O       1.98723      1.92408      4.78775        -0.511495      0.184670     -0.596000
O       1.93038     13.24512      4.91193        -0.166996      0.010508     -1.426493
O      13.22405      1.86067      4.67733         0.171873      0.134625     -0.407155
O      13.27434     13.39018      4.80823         0.023348     -0.617105     -0.754487
O       1.83086      1.85841      8.83260         0.214507     -0.239010      0.143036
O       1.87370     13.26101      9.06632         0.071734      0.176845     -0.464411
O      13.21390      1.96304      8.79954         0.163068     -0.265118     -0.148574
O      13.34524     13.12056      9.05625        -0.261174      0.880719     -1.240794
O       1.82129      5.71528      0.50367         0.162014      0.033735     -0.789606
O       1.84920      5.72563     13.21092         0.092888     -0.234798     -0.716853
O      13.24010      5.90536      0.31606        -0.064976     -0.495074      0.168584
O      13.16912      5.74531     13.15563         0.344360     -0.190495     -1.930833
O       1.72610      5.63665      4.70309        -0.075549      0.033145      0.052427
O      13.25965      5.85013      4.68367         0.235506     -0.312657     -1.290833
O       1.73064      5.76872      8.92329         0.258750     -0.496600     -1.256641
O      13.14692      5.74217      9.05464        -0.507546     -0.493053     -0.324811
O       1.89223      9.49812      0.24605         0.072334     -0.072398      0.121034
O       1.95813      9.43922     13.15106        -0.094950     -0.555183      0.421428
O      13.27820      9.42781      0.24063        -0.070338      0.187618     -1.877043
O      13.14546      9.40510     13.08033         0.650296      0.052488      1.127885
O       1.80699      9.65365      4.80193        -0.093252     -0.137017     -1.018821
O      13.31607      9.55473      4.68223        -0.131227     -0.137757     -0.214824
O       1.73599      9.32389      8.88551         0.341661      0.452902     -1.077822
O      13.37204      9.39757      8.96647        -0.569222     -0.030299     -1.027659
O       5.58200      1.74942      0.44058         0.412142      0.436118     -1.031939
O       5.61641      1.78565     13.36048         0.298614      0.304239     -1.859872
O       5.78283     13.30421      0.52496        -0.211498     -0.294848     -1.650723
O       5.64139     13.41586     13.17877         0.359120     -0.191547     -1.570566
O       5.63823      1.88123      4.59245        -0.126592      0.030350      0.330644
O       5.71614     13.25666      4.69223        -0.226065      0.300945     -0.543975
O       5.73449      1.93325      8.82418        -0.076927     -0.193628     -0.686035
O       5.52012     13.21703      8.97225         0.488911      0.370976      0.602172
O       5.70201      5.71818      0.60175        -0.406115      0.011029     -1.660323
O       5.66472      5.71532     13.12448        -0.117267      0.029717      0.116393
O       5.85205      5.76201      4.68587        -0.210216     -0.268451     -2.734875
O       5.84335      5.63495      8.82092        -0.324579      0.021457     -1.307095
O       5.57678      9.56375      0.63640         0.182483     -0.060707     -1.787686
O       5.59949      9.43401     13.05214         0.317233     -0.006447     -0.794994
O       5.60705      9.55444      4.66787        -0.123811     -0.071151     -1.234742
O       5.81657      9.55771      8.75334        -0.573494     -0.255774      0.564950
O       9.55295      1.92460      0.48015        -0.030541     -0.534070     -0.704120
O       9.41249      1.91779     13.17317         0.200669      0.119329     -0.852758
O       9.58120     13.23778      0.43134        -0.350330      0.501413     -0.913853
O       9.38983     13.27731     13.09231         0.148255     -0.343052      0.332247
O       9.43726      1.97498      4.56665         0.157253      0.137883     -0.661480
O       9.35844     13.34303      4.74142         0.533694     -0.462879     -0.986207
O       9.34062      1.66625      8.96162         0.655049      0.516004     -0.570127
O       9.47157     13.34147      8.91546         0.144700      0.255204     -1.385677
O       9.44274      5.75677      0.26869         0.127521      0.260305     -0.633790
O       9.57357      5.41923     13.22401        -0.471132      0.231533     -0.693749
O       9.44772      5.69370      4.68127         0.121669     -0.403562     -0.030841
O       9.57272      5.58139      8.85265        -0.152208      0.185966     -0.787189
O       9.35478      9.50037      0.35867         0.081446      0.020695     -0.925549
O       9.41266      9.62800     13.13422        -0.221714     -0.384981     -0.923873
O       9.53932      9.48049      4.69545         0.035228      0.154375     -1.942960
O       9.43073      9.64075      8.80443        -0.084223     -0.841615      0.612893
O       3.77265      1.98951      2.45277        -0.945937     -0.047501      0.394963
O       3.79535      1.83137     15.30318        -0.835650      0.180125      0.255147
O       3.85767     13.28480      2.46149        -1.826581     -0.246604      0.100619
O       3.79616     13.35522     15.20314        -0.678807     -0.321347      0.629740
O      15.18502      1.82120      2.60085         0.627035      0.371397     -0.273655
O       0.01213      2.03116     15.12642        -0.328062     -0.177179      0.174692
O       0.04741     13.37196      2.64465        -0.450623     -0.060215     -0.058061
O       0.05675     13.23569     15.34222        -0.125238      0.384628     -0.122942
O       3.78442      1.97360      6.75957         0.187340     -0.365940      0.164421
O       3.77553     13.35374      6.97834        -0.369038     -0.139394     -0.071600
O      15.12395      1.93414      6.65062         0.149216     -0.160825      0.528732
O      15.10276     13.13195      6.98640        -0.279804      0.974379     -0.215531
O       3.80979      1.85226     11.00664        -0.169761     -0.033909     -0.005869
O       3.75775     13.25552     11.11526         0.389058      0.524480      0.243425
O      15.17908      1.98339     10.83402        -0.073525      0.069696      0.509518
O      15.15842     13.16041     11.27139        -0.530421      0.148238     -0.666611
O       3.68176      5.73274      2.77785         0.951132     -0.004803     -0.377652
O       3.84225      5.77553     15.39313        -1.004519     -0.304826     -0.009329
O      15.10748      5.80527      2.58168         0.898568     -0.004485      0.046731
O      15.13944      5.77664     15.30798         0.140499     -0.470256     -0.752913
O       3.73855      5.75416      6.74113         0.018648     -0.300172     -0.075152
O      15.01576      5.58858      6.99366         1.213919     -0.268888     -0.715249
O       3.80473      5.80406     10.87607        -0.485584     -0.268258      0.286506
O      15.13052      5.48116     11.07705         0.059450      0.412859      0.105205
O       3.59416      9.51644      2.60020         1.335043      0.063970      0.036856
O       3.87623      9.44707     15.31565        -1.044730     -0.111489     -0.015108
O      15.15125      9.51210      2.50461        -0.162528     -0.017801     -0.087642
O       0.00148      9.38144     15.10731        -0.018178     -0.288707      0.108974
O       3.70063      9.37118      6.88946         0.599076      0.718847     -0.526103
O      15.16554      9.55414      6.84477        -1.179012      0.441057     -0.133136
O       3.73134      9.26440     10.92750         0.906422      0.266610     -0.075861
O       0.00608      9.57058     11.05555        -1.257225     -0.361174      0.647091
O       7.57931      2.02503      2.52546         0.425588     -0.493809     -0.150700
O       7.61434      1.89851     15.38449        -0.178800     -0.167986      0.167920
O       7.57106     13.32240      2.64102         1.624025     -0.144574     -0.323651
O       7.55713     13.39421     15.21831         1.070596     -0.393607      0.464206
O       7.56906      1.89900      6.81027         0.382321      0.091372     -0.475465
O       7.59236     13.22608      6.91880        -0.715442     -0.030329     -0.053342
O       7.55891      1.86138     11.04242        -0.112047      0.081663      0.243491
O       7.58870     13.14464     11.02161        -0.687743      0.526080      0.028179
O       7.66737      5.66642      2.41333        -0.513112      0.160576      0.517231
O       7.52582      5.62409     15.23345         1.303206      0.108210      0.320810
O       7.51588      5.58836      6.83984         2.106900     -0.018149     -0.257560
O       7.59046      5.58426     11.22908         0.968539      0.013123     -0.425122
O       7.57908      9.66316      2.54294        -0.052234     -0.707942     -0.012312
O       7.58960      9.52186     15.25496        -1.471442      0.186586      0.313082
O       7.57814      9.60426      6.79052        -0.433737     -0.129118     -0.503167
O       7.57068      9.64648     11.01513        -1.094070     -0.421281      0.116812
O      11.41545      2.04628      2.52461         0.564880     -0.443878     -0.200561
O      11.38450      1.80096     15.27431        -0.062501      0.313720      0.233668
O      11.48484     13.34129      2.59484        -0.345715     -0.525255     -0.276169
O      11.45895     13.30108     15.18646         0.073730      0.108700      0.030485
O      11.34068      1.82443      6.83377        -1.007178      0.094449      0.209630
O      11.35672     13.33931      6.97680        -0.527243      0.100123      0.048446
O      11.36071      1.87073     11.04573         0.052769     -0.835146     -0.027847
O      11.37909     13.34276     11.21085        -0.213714     -0.210392     -0.775689
O      11.40642      5.77606      2.53565         0.082653     -0.024266     -0.638755
O      11.34376      5.73342     15.23217         0.508201     -0.138722      0.452832
O      11.36034      5.85312      6.75749        -0.644132     -0.113831      0.422323
O      11.24068      5.88365     11.14700         0.994050     -0.691358     -0.150290
O      11.38816      9.48386      2.44590        -0.310907      0.412048     -0.047089
O      11.34415      9.76060     15.15418         0.518698     -0.869834      0.101289
O      11.36255      9.28329      6.82692         0.496433     -0.074239      0.096212
O      11.32874      9.22016     10.97512        -0.826936      0.512425      0.142099
O       1.87240      3.79681      2.57489        -0.647631      0.166855      0.104922
O       1.82570      3.83461     15.24204         0.725645      0.637396      0.065717
O       2.02608      0.03060      2.49536        -0.253142      0.273942     -0.254344
O       1.78311      0.00904     15.16682         0.113397     -0.140623      0.125392
O      13.41086      3.84806      2.27850        -0.398926      0.383942      0.447912
O      13.21608      3.77962     15.19738        -0.060098      0.414405     -0.015194
O      13.29245      0.03169      2.56732        -0.185895     -0.091318     -0.193220
O      13.53469     15.18374     15.16188        -0.566141     -0.758224      0.460634
O       1.91757      3.82163      6.97350        -0.371095     -0.091317     -0.252786
O       1.88316      0.00811      6.78318        -0.384641      0.155365      0.432472
O      13.10042      3.83381      6.71384        -0.219521     -0.006025      0.153395
O      13.17621      0.02624      6.84358         0.635604     -0.755899      0.360688
O       2.02081      3.73157     10.92748        -0.624766      0.131479      0.287492
O       1.82175     15.13785     11.03677         0.052984      1.370141      0.342230
O      13.13682      3.68094     11.13573         0.075700      0.692745     -0.036376
O      13.28355     15.16347     11.13059         0.307264      0.301246     -0.885329
O       1.91972      7.65924      2.65201        -0.627080     -0.338456     -0.340288
O       1.89641      7.49482     15.44194         0.069360      1.242427     -0.559128
O      13.21535      7.68701      2.48767         0.637481     -0.388603     -0.081764
O      13.15418      7.62804     15.29762        -0.004759     -0.119997     -0.519677
O       1.75667      7.54241      6.81875        -0.178558      0.732699     -0.417565
O      13.48657      7.64238      6.86277        -1.038920     -0.722777     -0.968305
O       1.68689      7.52255     11.13599         0.159882     -0.699500      0.151920
O      13.36462      7.50618     11.05919         0.308775     -0.508534      0.598857
O       1.88338     11.47403      2.50009        -0.166664     -1.363571      0.307534
O       1.77110     11.31627     15.07721         0.446624      0.052051      0.322077
O      13.34665     11.39157      2.50475        -0.223508      0.422422     -0.099837
O      13.50859     11.40073     15.37284        -0.756564     -0.240050     -0.670984
O       1.88514     11.46684      7.00475         0.275778     -1.515866     -0.254421
O      13.06650     11.30634      6.91040         0.374475      0.980769     -0.166947
O       1.91253     11.33117     11.05783         0.521386     -0.705127      0.190323
O      13.13733     11.25528     10.99848        -0.084684      0.554077      0.216566
O       5.74143      3.80920      2.58800        -0.428196     -0.156817      0.094964
O       5.62164      3.81572     15.44785         0.642408     -0.251355     -0.375965
O       5.66370      0.00246      2.61868         0.172211      0.591990      0.051963
O       5.67751     15.14036     15.39094         0.159093      0.366279      0.362529
O       5.70226      3.81297      6.72944        -0.343268     -0.749619     -0.089840
O       5.68579     15.18405      6.81471        -0.051025      0.375433     -0.030502
O       5.68530      3.85364     11.00538        -0.345734     -1.823184      0.012509
O       5.60623      0.06202     11.02728         0.445934     -1.506926     -0.065177
O       5.78119      7.59767      2.62506        -0.439488      0.124947      0.095740
O       5.79566      7.59308     15.22256        -0.327783      1.023266      0.364071
O       5.66407      7.57912      6.77478         0.444435      1.049008     -0.172041
O       5.80733      7.51937     10.95730         0.268803      1.679288     -0.117962
O       5.66839     11.39983      2.58684        -0.236368     -0.095923      0.117885
O       5.66802     11.40004     15.16414         0.220763     -0.991737      0.765334
O       5.56528     11.43459      6.76951        -0.173850      0.034209     -0.013748
O       5.51665     11.31715     11.02865         0.417477      0.039722      0.075495
O       9.62876      3.87178      2.42085        -0.481994      0.076507      0.016535
O       9.38708      3.78658     15.48621         0.921900     -0.589336     -0.479845
O       9.62481     15.18762      2.60250        -0.689225      0.093317     -0.529314
O       9.46400      0.01366     15.20230         0.148581     -1.316119      0.411370
O       9.59938      3.74067      6.79330        -0.285480      0.074503      0.067765
O       9.40733     15.19838      6.75264         0.310698      0.191684      0.410892
O       9.50639      3.69382     10.94440        -0.035565      1.459615      0.507851
O       9.41044     15.14995     11.16930         0.000694      0.845035     -0.049981
O       9.46283      7.65336      2.48398         0.193931     -0.615112     -0.649942
O       9.52963      7.63403     15.15577        -0.104620     -0.330364      0.266453
O       9.29781      7.54496      6.78982         0.366163     -0.781305     -0.035991
O       9.28945      7.54291     10.84859        -0.384635      1.087252      0.048773
O       9.62166     11.41819      2.56799        -0.409162      0.034577     -0.095533
O       9.36839     11.45008     15.39878         0.300645      0.409542     -0.516983
O       9.64541     11.34592      6.84576        -0.194179      0.503083     -0.382339
O       9.50713     11.41389     10.91644         0.204535     -0.461093      0.091620
