  # total energy = -7866.71922418 
CRSYTAL
PRIMVEC
    15.010000000000000    0.0000000000000000    0.0000000000000000
     0.0000000000000000   15.010000000000000    0.0000000000000000
     0.0000000000000000    0.0000000000000000    16.400000000000000
PRESSURE
17.7437 17.958 4.82736 0.127294 0.010084 -0.01789
PRIMCOORD
320 1
Pb       4.00970      3.67949      4.34280        -1.473165     -0.202883     -1.069126
Pb       3.83058      3.78477      0.12621        -0.243195     -0.007515      0.020913
Pb       3.69374      0.14448      4.14448        -0.179003     -0.242030     -0.116030
Pb       3.81149      0.02548     16.35744        -0.630723     -0.274921     -0.075174
Pb      14.92238      3.62870      4.08500         0.591591      0.351325     -0.470654
Pb       0.01806      3.65612     16.34930         0.154306      0.623331      0.138168
Pb      14.95345      0.06066      4.22763         0.565280     -0.535678     -0.570889
Pb      14.88940     15.00256      0.05497         0.362473     -0.229543     -0.397896
Pb       3.81631      3.63164      8.32330        -0.633713      0.185137     -1.300721
Pb       3.85495     14.90905      8.29953        -0.806429     -0.184068     -0.562827
Pb       0.04478      3.75504      8.30537         0.169883     -0.090298     -0.211198
Pb      14.94361     14.88466      8.16532         0.548653      0.532110     -0.003270
Pb       3.83798      3.72047     12.22054        -0.824816      0.328226      0.450359
Pb       3.74621      0.01725     12.47854         0.087458     -0.505348     -0.714921
Pb       0.02334      3.67523     12.33240         0.055249      0.262645     -0.593877
Pb       0.02282      0.01614     12.29481         0.016099     -0.081295     -0.352449
Pb       3.53797      7.57518      4.08457         0.736462     -0.438414     -0.479510
Pb       3.77754      7.41381      0.23578        -0.328205      0.069211     -0.828625
Pb      14.92664      7.49264      4.11802        -0.395527      0.023114     -0.429605
Pb      14.96006      7.52535      0.09351        -0.040701      0.114142     -0.802983
Pb       3.69472      7.58598      8.05165         0.205199     -0.607059      0.233580
Pb       0.00093      7.54176      8.21622        -0.515379     -0.533310     -0.168086
Pb       3.77091      7.58545     12.29915        -0.204827     -0.463518     -0.000414
Pb       0.05368      7.32666     12.32197        -0.323028      0.499954      0.101960
Pb       3.56876     11.21298      4.20370         0.562392      0.674961     -0.596953
Pb       3.74115     11.00454     16.31494        -0.542040      0.921672      0.169748
Pb      14.97257     11.20288      4.11104        -0.182318      0.530474     -0.504971
Pb      14.93351     11.38700      0.08348        -0.005741     -0.676366     -0.739119
Pb       3.67610     11.06663      8.24637         0.355530      1.302969      0.124163
Pb      14.98744     11.13956      8.15597         0.190521      0.445671      0.468004
Pb       3.76901     11.29461     12.36439        -0.653019      0.123868     -0.510805
Pb       0.01392     11.29160     12.33285         0.164866     -0.388793     -0.329503
Pb       7.49932      3.70527      4.16286         0.419387      0.025493     -0.534897
Pb       7.52687      3.85889     16.36339        -0.076017     -0.477025      0.046178
Pb       7.46143     14.86163      4.25041         0.353529      0.480232     -0.938041
Pb       7.31271     14.99797     16.38661         0.911277      0.137417     -0.269067
Pb       7.51266      3.65077      8.24358         0.259660      0.368473     -0.373403
Pb       7.50774     15.00835      8.28567        -0.281532     -0.165549     -0.271914
Pb       7.44450      3.73164     12.26354         0.586651     -0.120230      0.091151
Pb       7.59116     14.83297     12.42231        -0.313261      0.542323     -0.195110
Pb       7.27200      7.52533      4.00465         0.799614     -0.127046      0.260570
Pb       7.47242      7.44544      0.05666         0.021522      0.380451     -0.556598
Pb       7.48977      7.48912      8.38307         0.078802      0.519398     -0.700857
Pb       7.57867      7.42302     12.50825         0.033693      0.521411     -0.935274
Pb       7.46729     11.34514      4.09275         0.012412     -0.107112     -0.356329
Pb       7.53400     11.27262      0.08981        -0.551531     -0.325077     -0.266772
Pb       7.44266     11.20262      8.24945        -0.269427     -0.413111     -0.359049
Pb       7.54444     11.16767     12.34955         0.209793     -0.089387     -0.467643
Pb      11.15495      3.75745      4.14442         0.028379     -0.202071     -0.319083
Pb      11.32824      3.83293     16.38172        -0.526086     -0.299390     -0.337065
Pb      11.44583     14.96901      4.24573        -1.003424      0.591503     -0.455023
Pb      11.06474     14.89211      0.11962         0.439467      0.643539     -1.011534
Pb      11.45882      3.76586      8.12101        -0.869492      0.090824      0.428394
Pb      11.33748     14.86942      8.25035        -0.109389      0.614369     -0.551021
Pb      11.34418      3.70893     12.19520        -0.334176      0.535662      0.110269
Pb      11.30799      0.13906     12.29013        -0.547753     -0.828398      0.180867
Pb      11.21815      7.45703      4.19722         0.072637      0.164764     -0.642940
Pb      11.10792      7.44703      0.14064         0.528168      0.403017     -1.005814
Pb      11.06657      7.43728      8.18812         0.717629      0.173447     -0.023404
Pb      11.29889      7.30982     12.29528        -0.250053      0.945290     -0.149132
Pb      11.31027     11.28497      4.16886        -0.463912     -0.232426     -0.565962
Pb      11.20516     11.13869      0.06846         0.682586     -0.001987     -0.728838
Pb      11.06973     11.18549      8.30442         0.144884     -0.115331     -0.187782
Pb      11.18429     11.32155     12.25248        -0.072055     -0.573528      0.246877
Ti       1.85894      1.87233      2.05485         1.205674      0.543260     -0.025812
Ti       1.87642      1.89964     14.40857         0.181498     -0.364265     -0.136915
Ti       1.83047     13.19486      2.09489        -0.398826     -0.406033     -0.579111
Ti       1.78990     13.14487     14.39058         0.469216     -0.426130     -0.696345
Ti      13.08587      1.87041      2.02761         0.229162      0.035495      0.096820
Ti      13.11231      1.83076     14.41007        -0.673318      0.909939     -0.269293
Ti      13.09714     13.14096      2.10699         0.985122      0.339497     -0.825713
Ti      13.08469     13.11560     14.27002        -0.709371     -0.413304      0.600501
Ti       1.82251      1.90237      6.20755         1.004962     -0.901331     -0.025775
Ti       1.89413     13.13464      6.20072         0.070180      0.992086     -0.282019
Ti      13.16434      1.91789      6.19211        -0.635656     -0.942652      0.256527
Ti      13.10235     13.04812      6.22194         0.660089      1.664333     -0.223643
Ti       1.88539      1.83784     10.25190        -1.246072      0.489869     -0.830486
Ti       1.79863     13.18346     10.26941         0.592059     -1.329624      0.319153
Ti      13.12556      1.81489     10.22178         0.700492      0.862071     -0.795918
Ti      13.08168     13.06992     10.28036        -0.094459      0.508404      0.080726
Ti       1.82866      5.60554      2.10670         0.220742     -0.337064     -1.155737
Ti       1.91601      5.61682     14.43628        -0.226442      0.844716     -0.023974
Ti      13.12060      5.58703      2.08515         0.194247      1.321178     -0.294658
Ti      13.17364      5.64166     14.42231        -0.796787      0.716589     -0.505342
Ti       1.84542      5.58662      6.05523         0.180194     -0.351077      1.463948
Ti      13.14143      5.64461      6.16262        -0.342007      0.948578      0.673766
Ti       1.91038      5.64207     10.25966        -0.690210     -0.625918      0.108300
Ti      13.16450      5.60268     10.23998        -0.942882      0.670269     -0.695572
Ti       1.74799      9.40517      2.04704         0.458844     -0.240520     -1.227345
Ti       1.79600      9.37430     14.31203        -0.200356     -0.328573     -0.080091
Ti      13.05396      9.38079      2.11485        -0.038416     -0.735818     -0.406135
Ti      13.13490      9.37813     14.33997        -0.460941     -0.327043      0.187322
Ti       1.79267      9.38772      6.13827        -0.531063     -0.142699      0.553617
Ti      13.02378      9.39846      6.25370         0.447577     -0.953426     -0.643164
Ti       1.85370      9.36502     10.29378        -0.242915      0.879896      0.735296
Ti      13.13157      9.38306     10.27205        -0.620827     -0.866945      0.614171
Ti       5.67638      1.81915      2.07604        -1.289374      1.339731      0.340995
Ti       5.61817      1.94800     14.37945         0.944609      0.196490     -0.714695
Ti       5.46833     13.15722      2.11524         1.148968     -0.700227     -0.536206
Ti       5.56519     13.09024     14.37565        -0.287802      0.684099     -0.410798
Ti       5.67573      1.83301      6.23842        -1.452941     -0.229545      0.083537
Ti       5.60392     13.14264      6.15850        -0.898362     -0.753430      0.384192
Ti       5.57741      1.83961     10.30163         1.259371     -1.751245      0.100040
Ti       5.57011     13.09354     10.30241        -0.261671      0.118798      0.116901
Ti       5.61466      5.61273      2.10916        -0.314302     -0.532882     -0.438580
Ti       5.57361      5.67621     14.31913         0.895948      0.230824      0.531483
Ti       5.61188      5.62515      6.18584         0.326952      0.259341     -0.170500
Ti       5.61749      5.59515     10.22508         0.232574      1.992686     -0.126084
Ti       5.54720      9.45072      2.12578        -0.193509     -0.131040     -1.326197
Ti       5.61791      9.40683     14.35419         0.674988     -1.244659      0.714218
Ti       5.60442      9.37507      6.14481         1.773513      0.665161     -0.235933
Ti       5.58325      9.35366     10.33329         1.438580     -0.369660     -0.309435
Ti       9.35780      1.87039      2.09890         0.415713      0.444955     -1.106708
Ti       9.40436      1.92674     14.35485        -0.965398     -0.788127      0.662824
Ti       9.39930     13.22250      2.10273        -1.825068     -0.903763      0.166629
Ti       9.35536     13.14109     14.47182         0.438845      0.657402     -0.958563
Ti       9.36251      1.86765      6.22247         0.926751      0.358036     -0.757383
Ti       9.37519     13.17392      6.22897         0.105657     -0.595479     -0.523724
Ti       9.36206      1.84559     10.24939        -0.019757      0.652396     -0.540169
Ti       9.29487     13.17099     10.22859         0.740785     -1.570278      0.596828
Ti       9.37307      5.64887      2.14732        -0.387605     -0.255284     -0.112631
Ti       9.38793      5.60834     14.34839         0.121573      0.713486     -0.425488
Ti       9.29986      5.63007      6.19791         0.252501      0.713972     -0.475891
Ti       9.33583      5.58047     10.21155         0.618070      0.836380      1.101291
Ti       9.31593      9.42785      2.16942         0.457772     -0.398947     -0.411557
Ti       9.40018      9.42856     14.42995         0.121049     -1.450629     -1.060173
Ti       9.35340      9.42675      6.09963        -1.249043     -1.228509      0.414269
Ti       9.38010      9.35747     10.32448        -0.294506     -0.441662      0.665045
O       1.95898      1.91484      0.18099        -0.538676     -0.650381      0.777232
O       1.82558      1.88466     12.52864        -0.058361      0.185176      0.420072
O       1.71868     13.15754      0.25739        -0.008607      0.331384     -0.276019
O       1.91960     13.10083     12.48122        -0.492675      0.342240      0.869744
O      13.09628      1.95808      0.19601         0.035454     -0.614049      0.175600
O      13.11438      1.93660     12.52058         0.059551     -0.280481      0.462291
O      13.09867     13.23725      0.22384         0.396452     -0.165272      1.119131
O      13.00263     13.22044     12.41576         0.332524     -0.193531      1.273105
O       1.85266      1.89153      4.35483        -0.672496      0.047643      0.083803
O       1.90894     13.15519      4.34373        -0.067312     -0.551434      0.453859
O      13.24921      1.82413      4.30808        -0.310025      0.595088      1.185233
O      13.05881     13.16592      4.33796         0.076523     -0.280059      0.317890
O       1.84150      1.87185      8.36855         0.466008      0.221545      1.551056
O       1.78231     13.16977      8.46299         0.012447     -0.116934     -0.526594
O      13.17696      1.91062      8.34741        -0.646020     -0.217904      0.814856
O      13.11892     13.24043      8.38482        -0.019550     -0.679608      0.721790
O       1.80967      5.74364      0.16579        -0.047054     -0.072770      1.149611
O       1.86692      5.57886     12.58701         0.051086     -0.172070     -0.005103
O      13.09933      5.70068      0.21951         0.034807     -0.489485      1.010905
O      13.08511      5.73781     12.51513         0.230620     -1.005191      0.590278
O       1.92528      5.59763      4.29073        -0.064270      0.027069     -0.502549
O      13.08633      5.67591      4.34672         0.011099     -0.217771     -0.076071
O       1.84050      5.66479      8.44229         0.357961      0.101271     -0.071404
O      13.14222      5.69563      8.33082         0.022688     -0.423828      1.259443
O       1.77628      9.29591      0.16832         0.566447      0.457855      0.984170
O       1.81311      9.44755     12.40165         0.024382     -0.082429      1.265130
O      13.02972      9.37315      0.29990        -0.157500      0.289639      0.057399
O      13.13766      9.47750     12.54363         0.303127     -0.453231     -0.440942
O       1.78328      9.40566      4.29632         0.046078      0.369363      0.288488
O      13.13882      9.42504      4.37139         0.014310      0.181908      0.517954
O       1.80167      9.34306      8.38299         0.681779     -0.179983      0.280276
O      13.12271      9.40832      8.39583        -0.236062      0.187294      1.050005
O       5.62500      1.90481      0.26194        -0.381178     -0.415382     -0.989136
O       5.64658      1.97584     12.47376        -0.342696      0.033191      0.655052
O       5.57739     13.18972      0.24717        -0.024617      0.014557      0.073696
O       5.57693     13.07362     12.44187        -0.024627     -0.097779      1.860158
O       5.63475      1.87890      4.37941         0.485341      0.002791     -0.287200
O       5.44343     13.21030      4.31881         0.566474     -0.393093      0.360764
O       5.58981      1.74029      8.33027        -0.163230      0.793864      1.857117
O       5.61446     13.13851      8.42594         0.360204      0.221025      0.519299
O       5.62107      5.62823      0.22457         0.129655      0.435202      0.443941
O       5.62337      5.69920     12.48639         0.032224     -0.698835      0.073535
O       5.51456      5.53482      4.23757         0.626570      0.512683      1.192173
O       5.71541      5.64382      8.35980        -0.943645     -0.009918      0.596575
O       5.56061      9.45790      0.17002        -0.058790     -0.270348      1.470798
O       5.65412      9.42221     12.52466        -0.066628      0.104626     -0.244514
O       5.62426      9.49971      4.27842        -0.110576     -0.332839      0.564157
O       5.60218      9.37951      8.46149        -0.306189     -0.389678     -0.534024
O       9.33837      1.83772      0.18146         0.340379      0.176564      1.764059
O       9.41524      1.85030     12.52889        -0.308552      0.338946     -0.909740
O       9.15556     13.18784      0.19345         1.098498      0.100839      1.275179
O       9.48643     13.19067     12.59696        -0.845900     -0.040946      0.255864
O       9.23109      1.89603      4.34081         0.261632      0.165911      0.484919
O       9.40749     13.15041      4.37159        -0.068270      0.078181      0.466378
O       9.35724      1.89113      8.32792        -0.100480      0.044239      1.890670
O       9.23327     13.11648      8.40039         0.435701      0.175679     -0.265383
O       9.33570      5.59654      0.29385         0.274642      0.185096     -0.186929
O       9.34464      5.63095     12.47047        -0.070152     -0.166647      1.322566
O       9.29451      5.68035      4.33708         0.150178     -0.161168      0.025844
O       9.43813      5.59025      8.42215        -0.701060     -0.071703     -0.986106
O       9.34056      9.44381      0.24012         0.393506      0.173198      0.686910
O       9.39669      9.46292     12.52938        -0.665586     -0.245039      0.919263
O       9.28769      9.42556      4.28328        -0.057993     -0.139825      0.084138
O       9.39856      9.37566      8.48052         0.020739      0.239051      0.196840
O       3.73991      2.01237      2.42595         0.352998     -0.414802     -0.301123
O       3.74275      1.80618     14.56431        -0.081280     -0.180162      0.032556
O       3.66218     13.05719      2.30585         0.483923     -0.624133      0.111953
O       3.65283     13.25474     14.62040         1.442008      0.018424      0.068208
O      14.99572      1.83255      2.34336         0.272560     -0.085776     -0.274456
O      14.97648      1.98861     14.65053         0.553577     -0.010018     -0.082014
O      14.97936     13.25888      2.40356        -0.797393      0.223002      0.046135
O      14.93617     12.94165     14.55200        -0.282801      0.843594      0.037502
O       3.67700      2.05175      6.36472         1.246061      0.305441      0.309537
O       3.75097     12.98495      6.51238        -0.405539     -0.403352      0.026807
O      14.99023      1.70813      6.49904        -0.521175     -0.068463     -0.506388
O      14.98257     13.33181      6.38176        -0.131638     -0.579629     -0.082357
O       3.73323      1.84967     10.53502        -0.057453      0.774598     -0.112896
O       3.70291     13.08692     10.50504         0.230518     -0.137064     -0.188145
O      14.95507      1.85103     10.42841         1.030801     -0.419416      0.624449
O      14.93946     13.20904     10.58680         0.067157      0.397003     -0.010175
O       3.68122      5.58941      2.10701         0.964552      0.438508      0.442324
O       3.80088      5.81487     14.67233        -1.199128     -0.000954     -0.018803
O      14.99069      5.75354      2.43130        -0.707973     -0.308274     -0.163016
O      15.00184      5.65539     14.56450         0.523175     -0.806683      0.142792
O       3.73018      5.36453      6.35763         0.115045      0.571074      0.583258
O      14.99475      5.84433      6.35112         0.504906      0.145459     -0.043615
O       3.73052      5.52888     10.59753         0.684559     -0.180464     -0.458745
O      14.99270      5.65796     10.51140         0.487356      0.152103      0.121389
O       3.65012      9.41646      2.32919         0.477690      0.623789      0.070813
O       3.76219      9.34075     14.52740        -1.039590      0.056241      0.134149
O      14.93255      9.18940      2.28670         0.274247      0.603784      0.479837
O      14.95791      9.46183     14.70263         1.142149      0.331052     -0.170368
O       3.75707      9.61530      6.39181        -0.917800     -0.662487     -0.145410
O      14.94110      9.23585      6.49637         0.979018      0.446092     -0.430754
O       3.74718      9.48607     10.53979        -1.038437     -0.325694     -0.039991
O      14.99849      9.28645     10.46900        -0.259665     -0.095155     -0.181207
O       7.51579      1.75346      2.25418        -0.187320      0.012979      0.449508
O       7.45414      2.09036     14.57534         0.554504     -0.123162      0.047768
O       7.46977     13.21359      2.44968         0.143791      0.200561     -0.084214
O       7.43188     13.13171     14.63237        -0.014946     -0.437512     -0.404115
O       7.48990      1.66610      6.49033         0.101164      0.006532     -0.129845
O       7.46924     13.36899      6.33767         0.373227      0.010844      0.039322
O       7.44407      1.75655     10.47421         0.953331      0.310822     -0.209534
O       7.51062     13.21305     10.57061        -1.168515     -0.339583      0.089023
O       7.46006      5.79629      2.30426         0.331210     -0.318096      0.235079
O       7.48960      5.60299     14.65041         0.569540     -0.533000     -0.201292
O       7.47824      5.82693      6.44768        -1.113887     -0.292908     -0.161915
O       7.46127      5.76576     10.46072        -0.345361     -0.477797      0.154782
O       7.44344      9.36800      2.23485         0.115054     -0.116174      0.409603
O       7.48680      9.49998     14.61788         0.412395      0.531762     -0.014406
O       7.53281      9.21816      6.51477        -1.581773      0.385347     -0.234621
O       7.49603      9.21057     10.50349        -0.040427      0.736440      0.179821
O      11.31382      1.97583      2.48612        -1.787998      0.188978     -0.291167
O      11.20791      1.82919     14.64069         1.557001     -0.320274     -0.018714
O      11.24223     13.12915      2.31719        -0.147353     -0.221640     -0.061273
O      11.22886     13.19160     14.68152         0.090646      0.515213      0.364555
O      11.24625      2.10343      6.37710         0.399251      0.050147     -0.317827
O      11.23720     12.95222      6.45664        -0.304190      0.303563      0.256357
O      11.25000      2.01992     10.46770        -0.788692     -0.369883      0.044890
O      11.19094     12.96665     10.45699         0.723419      0.874229     -0.501571
O      11.24766      5.60328      2.44102        -0.066136     -0.156235     -0.203964
O      11.24874      5.78898     14.67604        -0.236410     -0.299697     -0.032901
O      11.19710      5.53009      6.42949         0.756494     -0.095078     -0.271114
O      11.19509      5.55971     10.49548         1.219525     -0.402637      0.114888
O      11.24535      9.48780      2.48401        -1.276766     -0.126142     -0.220983
O      11.27982      9.29300     14.60817        -1.205370      0.165327      0.614711
O      11.18329      9.48432      6.44458         0.307814      0.440389     -0.056793
O      11.21963      9.51622     10.62992         1.510342     -0.434422     -0.753641
O       1.87010      3.75485      2.21420        -0.971667      0.226983      0.231813
O       1.99050      3.75502     14.75987        -0.288678      0.122493     -0.559301
O       2.01420      0.00983      2.38023        -0.424060      0.594141     -0.251459
O       1.74810     14.98418     14.56811        -0.430443      1.415595      0.257657
O      13.17268      3.74246      2.27645         0.291729      0.748046      0.432248
O      13.05685      3.77211     14.68635        -0.092854     -0.194620     -0.238489
O      13.00507      0.06017      2.38878         0.314166     -1.211409     -0.313447
O      13.20031      0.01206     14.63752         0.171698     -0.511262     -0.249198
O       1.66101      3.74389      6.46909        -0.347151      0.928694     -0.261197
O       1.98969     14.97327      6.44794         0.117538      0.603813     -0.104740
O      13.30640      3.79574      6.43774        -0.008658     -0.405290     -0.301952
O      12.94182      0.00205      6.43562        -0.242173      0.366687     -0.243054
O       1.73936      3.72968     10.51458         0.512377     -0.008854     -0.019891
O       1.89927      0.01515     10.57070        -0.236650      0.244571      0.203545
O      13.21601      3.73807     10.48387        -0.361279      0.219246      0.199566
O      13.01629      0.01452     10.54649        -0.242642     -0.462307     -0.326362
O       1.90118      7.52943      2.39594         0.061869     -0.370898      0.005935
O       1.78043      7.54325     14.51737         0.041018     -0.222827     -0.167848
O      13.01137      7.52606      2.35694        -0.201644     -0.984116      0.299357
O      13.21975      7.51420     14.68274        -0.020702     -0.033193     -0.229713
O       2.02648      7.55449      6.29787         0.407208     -1.060166      0.238752
O      12.95800      7.58846      6.44575        -0.131012     -1.590554     -0.261753
O       1.92977      7.46921     10.61124         0.207703      0.631014     -0.329118
O      13.05316      7.44534     10.55492        -0.083591      1.472839     -0.317476
O       1.61772     11.27153      2.22532         0.301297     -0.475605      0.671793
O       1.89054     11.30352     14.53472         0.382916     -1.451173      0.423876
O      13.13990     11.28123      2.32296         0.461066      0.331037      0.263576
O      13.04313     11.25922     14.68203        -0.385449      0.822603      0.002994
O       1.73022     11.23787      6.43902        -0.273144      0.111810     -0.118377
O      13.19907     11.27940      6.44684         0.458789     -0.757346      0.084293
O       1.75321     11.26897     10.43903        -0.064103     -0.500644     -0.068014
O      13.22302     11.26653     10.57074         0.011470     -0.481350     -0.514278
O       5.68457      3.74767      2.17381         0.282960     -0.004983      0.732930
O       5.53098      3.82278     14.65255        -0.333438     -0.447446     -0.217913
O       5.46396      0.00496      2.29321         0.073771     -0.197637      0.198738
O       5.66948      0.03120     14.51979        -0.100499     -0.045390      0.299852
O       5.74947      3.72681      6.41007         0.346138      0.299337      0.076281
O       5.36761      0.00449      6.43988         0.274603     -0.358467     -0.260580
O       5.67366      3.72234     10.44641        -0.126446      0.288122     -0.024124
O       5.52514     14.98198     10.65842         0.061047      0.415877     -0.643253
O       5.51770      7.53927      2.32802        -0.192939      0.134809      0.139096
O       5.82336      7.53069     14.63852        -0.435135      0.230737     -0.221108
O       5.44611      7.51800      6.27121        -0.480652     -0.429615      0.290759
O       5.52537      7.49846     10.59166        -0.479166     -0.709980     -0.477249
O       5.71222     11.28703      2.29602        -0.302879      0.139315      0.210496
O       5.50190     11.28723     14.67849         0.041048      0.080678     -0.310610
O       5.75058     11.25691      6.40876         0.472721      0.284635      0.068626
O       5.64420     11.20130     10.44245         0.504880      1.324227      0.365729
O       9.27629      3.78347      2.29196        -0.038688     -0.934595      0.637105
O       9.54448      3.77270     14.57428        -0.370261      0.587084      0.376628
O       9.48552      0.01813      2.40713         0.097810      0.077774     -0.235774
O       9.22662      0.06321     14.60713        -0.000870     -0.853790      0.194569
O       9.15205      3.78043      6.33653        -0.342564     -0.710079      0.279096
O       9.58542      0.03494      6.47150        -0.070082     -0.928484     -0.120622
O       9.23329      3.76432     10.49679        -0.319276     -1.688943      0.123459
O       9.37313     14.97493     10.55887         0.696825      1.565922     -0.223676
O       9.37395      7.51671      2.26172         0.470918      0.752917      0.370175
O       9.28506      7.51075     14.67189        -0.246595      0.056598     -0.031672
O       9.40743      7.53045      6.51389         0.669118     -0.190511     -0.327369
O       9.42243      7.45526     10.57117         0.249598      0.718050     -0.401787
O       9.34438     11.29335      2.36942        -0.228128      0.549584     -0.186045
O       9.45978     11.27349     14.58578        -0.225727      0.413864      0.567421
O       9.23834     11.23856      6.49162        -0.257712      1.082849     -0.071831
O       9.38807     11.28013     10.55979        -1.163120     -0.159417     -0.200433
