  # total energy = -7882.48559932 
CRSYTAL
PRIMVEC
    15.3600000000000000    0.0000000000000000    0.0000000000000000
     0.0000000000000000   15.3600000000000000    0.0000000000000000
     0.0000000000000000    0.0000000000000000    17.440000000000000
PRESSURE
1.77264 1.66678 0.780597 -0.222015 -0.288155 -0.052982
PRIMCOORD
320 1
Pb       3.83257      3.86237      4.23432         0.058704     -0.360286      0.395165
Pb       3.76741      3.90322     17.35193        -0.013351      0.039271      0.231372
Pb       3.88624     15.35806      4.22520        -0.781865      0.195466      0.423925
Pb       3.98025      0.02797      0.02301        -0.403096     -0.573236      0.171921
Pb      15.24919      3.93809      4.29691         0.097756     -0.844133     -0.060490
Pb      15.20454      3.72227     17.36589         0.183357      0.615449      0.050226
Pb      15.24917     15.32996      4.35461         0.636772      0.185649     -0.071314
Pb       0.14111      0.02197     17.39833        -0.842421     -0.015361      0.513400
Pb       3.97529      3.89079      8.57063        -0.712782     -0.382152      0.787524
Pb       3.78287     15.26605      8.73683         0.042780      0.062136     -0.317251
Pb       0.16219      3.69847      8.66140        -0.736675      0.214931      0.931285
Pb       0.17641     15.29660      8.57528        -1.103927      0.137123      1.074390
Pb       3.89761      3.94738     13.07554        -0.718701     -0.260083      0.766631
Pb       4.02487     15.35035     13.22908        -0.794673      0.168393     -0.144496
Pb      15.24601      3.88967     12.93720         0.240341     -0.345537      0.535006
Pb      15.31343      0.02480     12.99995         0.596588      0.052407      0.584966
Pb       3.78069      7.65795      4.31934         0.475928     -0.527988      0.021596
Pb       3.86244      7.78325     17.43610         0.114404     -0.368193      0.033028
Pb      15.18556      7.44410      4.29624        -0.072809      1.361265      0.357681
Pb       0.21178      7.64690     17.41983        -1.190183     -0.010860     -0.182199
Pb       3.78688      7.58505      8.64779         0.553157      0.303571      0.337350
Pb      15.29766      7.70928      8.63588         0.214956     -0.139454      0.905482
Pb       3.83139      7.82950     13.09046        -0.052547     -0.774888     -0.075248
Pb      15.30611      7.74739     12.91456         0.267423     -0.201121      0.290038
Pb       3.86311     11.40600      4.36442         0.225465      0.313106     -0.034707
Pb       3.69967     11.44141      0.00358         0.533109      0.412113      0.044115
Pb      15.33708     11.39994      4.29426        -0.019582     -0.053358      0.600328
Pb       0.08996     11.38533      0.09660        -0.106082      0.113456     -0.894097
Pb       3.73715     11.48543      8.66689         0.542183      0.041005      0.062097
Pb       0.10588     11.63191      8.59719        -0.583852     -0.638618      0.559260
Pb       3.73924     11.58860     13.00269        -0.330271     -0.448783      0.482852
Pb      15.11702     11.43606     12.98112         0.861807     -0.275820      0.538444
Pb       7.57138      3.95769      4.24298         0.404169     -0.764365      0.758018
Pb       7.70380      3.82820     17.35433        -0.004544      0.095282      0.019093
Pb       7.55639     15.33359      4.20666         0.648675      0.293478      0.797694
Pb       7.82041     15.25504      0.00991        -0.359122      0.391257      0.021651
Pb       7.70891      3.78065      8.66607         0.080003      0.196639      0.042998
Pb       7.69849      0.07161      8.68424        -0.149053     -0.594907     -0.197421
Pb       7.49549      3.66191     13.01810         0.706011      0.398830      0.270340
Pb       7.72591     15.06299     13.13258        -0.626029      1.081397      0.295927
Pb       7.60602      7.79102      4.36158         0.032020     -0.519674      0.148531
Pb       7.76822      7.50711     17.36320        -0.469626      0.675678      0.234495
Pb       7.64700      7.59886      8.70865        -0.132521      0.295469      0.137462
Pb       7.75746      7.62610     13.07083        -0.729638      0.412482      0.006426
Pb       7.65991     11.50121      4.26221         0.092780      0.178547      0.565069
Pb       7.68948     11.44775     17.32094        -0.114090      0.113744      0.914342
Pb       7.76479     11.44270      8.79743        -0.904256     -0.044551     -0.395353
Pb       7.57886     11.53518     13.07097         0.019350     -1.111283      0.318339
Pb      11.58678      3.91717      4.36793        -0.715695     -0.258333     -0.023863
Pb      11.27881      3.78062     17.32975         0.664659      0.426066     -0.217803
Pb      11.50497      0.14318      4.30781        -0.669344     -0.149535      0.457484
Pb      11.69430      0.05147     17.33199        -0.475661      0.076057     -0.215091
Pb      11.69007      3.69932      8.67902        -0.618639      0.021216      0.497787
Pb      11.51386     15.33709      8.63938        -0.056322      0.072286      0.305164
Pb      11.41383      3.91358     12.87861         0.033057     -0.567798      0.856626
Pb      11.42157     15.30046     13.10196         0.141318      0.174859     -0.130635
Pb      11.53405      7.67395      4.38595         0.145459      0.240166     -0.053601
Pb      11.42957      7.67012     17.32389         0.297544     -0.116651      0.474863
Pb      11.46616      7.59103      8.66057         0.080923      0.299536      0.261868
Pb      11.62237      7.69327     12.98433         0.058817      0.172963      0.094735
Pb      11.39380     11.56678      4.36538         0.092379     -0.421125      0.262167
Pb      11.64000     11.57373     17.40128        -0.569259     -0.383540      0.435274
Pb      11.34788     11.52713      8.75609         0.785933     -0.152178     -0.495327
Pb      11.39700     11.58182     13.04623         0.320588     -0.566492      0.077694
Ti       1.89453      1.91055      2.29670        -0.379601     -0.730650      0.282292
Ti       1.91505      1.99137     15.39379        -0.603819     -0.037700     -0.125149
Ti       1.79232     13.38364      2.37607         0.701958      0.534762      1.587590
Ti       1.87416     13.53707     15.47694         0.913501     -1.503864     -0.926825
Ti      13.42388      1.92245      2.32695        -0.000778      0.631751     -0.495512
Ti      13.42818      1.97825     15.23176        -0.956093     -0.173148     -0.432345
Ti      13.36547     13.48264      2.42292        -0.132986     -0.885777     -0.040852
Ti      13.47355     13.41658     15.39372        -0.206403     -0.343819      0.204717
Ti       1.90351      1.88604      6.60039         0.413482     -0.307662     -0.377677
Ti       1.88563     13.33743      6.56122         0.274146      0.580254     -0.961764
Ti      13.44773      1.80960      6.71944        -0.371388      0.336872     -0.172737
Ti      13.35088     13.34976      6.65296         0.198652      0.974061      1.282868
Ti       1.93897      1.93386     11.10350        -0.648500     -0.631290      0.279072
Ti       1.86453     13.44760     11.09561         0.185950     -0.532718     -0.066767
Ti      13.35486      1.78369     11.07258         0.518750      0.607482     -0.333863
Ti      13.41711     13.40464     11.09784        -0.395031     -0.669064     -1.606111
Ti       1.85180      5.69788      2.28174         0.264484     -0.280926     -0.395880
Ti       1.92776      5.81700     15.39140        -0.436728     -0.529094      0.252458
Ti      13.33302      5.76117      2.25797        -1.008572      0.958216     -0.803009
Ti      13.41559      5.77079     15.36791         0.048077      0.072632     -0.069918
Ti       1.81671      5.72071      6.64511         1.044877      0.513527      0.339124
Ti      13.44334      5.68569      6.81824        -0.715940     -0.047464     -0.335366
Ti       1.94491      5.69750     11.01749        -0.063013      0.864471      0.721130
Ti      13.46093      5.66239     10.98829        -0.033174      0.676121     -1.383592
Ti       1.90130      9.51983      2.46929         0.123818      0.255062     -1.404736
Ti       1.91995      9.58242     15.33276        -0.681550      0.492703     -0.815872
Ti      13.36940      9.65911      2.31029         0.342324     -1.151265      1.887414
Ti      13.40203      9.51426     15.44322         0.546141      0.585983     -0.698759
Ti       1.96802      9.46311      6.66581        -0.713187      0.718599      0.246191
Ti      13.42967      9.57358      6.76970        -0.346856     -0.151650      0.102841
Ti       1.97844      9.56476     10.98086        -0.929936      0.019510      1.819700
Ti      13.44816      9.59405     10.89908        -0.285366     -0.247898      0.161698
Ti       5.75055      1.92312      2.25354         0.221819      0.129733     -0.158735
Ti       5.73782      1.92328     15.54217         0.744212     -0.759456     -1.708451
Ti       5.61996     13.40872      2.36884         1.634572     -1.240487     -1.383053
Ti       5.75351     13.37887     15.47143        -0.442103     -0.107527      2.928395
Ti       5.65941      1.84516      6.69396         0.829079      0.031879     -1.492270
Ti       5.68762     13.37976      6.66564         0.467533     -0.472452      2.017050
Ti       5.65278      1.82804     11.10055         0.049005      0.386375      0.319432
Ti       5.68101     13.38170     11.07063         0.233395      0.472530     -0.819273
Ti       5.69612      5.73784      2.18871         0.265358      0.109068      0.130045
Ti       5.73659      5.74175     15.45657        -0.341854      0.693295      0.543529
Ti       5.72101      5.74822      6.64903         0.409547      0.136559     -0.403526
Ti       5.70656      5.74916     11.07029         0.432146      0.522338      0.532161
Ti       5.79336      9.56633      2.28059        -0.292804      0.083592      0.405642
Ti       5.75423      9.53595     15.44205         0.343066      0.349594      0.282706
Ti       5.76787      9.57267      6.68982         0.385345      0.119681      1.836747
Ti       5.70746      9.57799     11.02272         1.064842     -0.336560     -0.537076
Ti       9.56137      1.98704      2.35944        -0.594767     -0.436121      0.828021
Ti       9.52941      1.92892     15.30334         0.061708      0.287917     -0.830597
Ti       9.55488     13.45568      2.35912        -0.659785     -0.007239      0.251369
Ti       9.62308     13.41366     15.45259        -0.116431      0.737668     -0.705885
Ti       9.54708      1.92827      6.68546         0.222198      0.290429     -1.164490
Ti       9.49696     13.41832      6.68637        -0.231205      0.150945     -0.859134
Ti       9.44700      1.76701     11.09970         1.041447      1.205926      0.100341
Ti       9.55115     13.34841     11.10237        -0.298352      1.175058      0.669361
Ti       9.52016      5.82586      2.38716         0.527027     -1.041466     -0.569221
Ti       9.58170      5.86860     15.26356         0.009966     -0.743531      1.318677
Ti       9.60751      5.70694      6.76661        -0.947832     -0.243087      1.794660
Ti       9.59186      5.78102     10.98833        -0.769171     -1.364251     -0.347701
Ti       9.59473      9.55816      2.34820         0.281834      0.802858     -0.234952
Ti       9.57836      9.69783     15.39268        -0.020042     -1.358828     -0.701361
Ti       9.54489      9.54688      6.71868         0.081426     -0.007024     -0.083136
Ti       9.56410      9.54196     11.10397        -0.624787      0.346231     -0.824629
O       1.79777      1.94858      0.52344        -0.101833     -0.147760      0.185745
O       1.80736      1.91477     13.64921         0.302840      0.090199      0.734907
O       1.89913     13.42834      0.66402        -0.284237     -0.049123     -1.242318
O       1.99993     13.48509     13.70557        -0.414713     -0.159724      1.108306
O      13.36057      1.93408      0.53405         0.150428     -0.063814      0.972584
O      13.46192      1.98078     13.41465        -0.238594     -0.227631      1.774892
O      13.24658     13.34407      0.67987         0.297000      0.475512     -0.183759
O      13.32974     13.44531     13.63830         0.225083     -0.471516      0.389000
O       2.01968      1.87686      4.83234        -0.462447      0.089493      0.988359
O       1.84696     13.38533      4.76027         0.113423     -0.065861      1.303936
O      13.44629      1.77339      4.93357         0.005468      0.330325     -0.110154
O      13.37197     13.46885      4.92137         0.158201      0.014619     -0.479725
O       1.82314      1.80621      9.33522         0.465677      0.146337      0.169101
O       1.96346     13.44272      9.27584        -0.305396     -0.120634      0.654417
O      13.46051      1.88661      9.28493        -0.259942     -0.233609      0.881519
O      13.39798     13.37060      9.30036        -0.038154     -0.120466      0.984260
O       1.81788      5.71650      0.50127         0.187828      0.110159      0.999789
O       2.07413      5.92661     13.68547        -0.698688     -0.468689     -1.007802
O      13.23169      5.78448      0.50825         0.218366     -0.355449      0.220099
O      13.41917      5.68703     13.57535        -0.050281      0.397113      0.656233
O       1.96874      5.89201      4.88758        -0.532123     -0.764678      0.231728
O      13.36569      5.79683      4.99619         0.205123     -0.171876      0.700390
O       1.97019      5.58235      9.28602         0.072911      0.562919     -0.279835
O      13.47108      5.63475      9.17053        -0.164672     -0.085422      1.141388
O       1.98825      9.60292      0.63641        -0.418337     -0.479268      0.832093
O       1.88548      9.55123     13.52734         0.158276      0.002661      1.181003
O      13.35899      9.72240      0.60168         0.208823     -0.094375     -1.004367
O      13.50990      9.51002     13.63948        -0.431607      0.015066      0.789869
O       1.99002      9.48157      4.91091        -0.042037     -0.099512     -0.729213
O      13.48327      9.50153      5.02615        -0.199686     -0.052908     -0.006681
O       2.02068      9.68892      9.28316        -0.253277     -0.289875     -1.952162
O      13.47874      9.64614      9.13180        -0.319838      0.153028      0.458480
O       5.64438      1.88224      0.47462         0.632498      0.175576      0.117925
O       5.83287      1.76477     13.70038        -0.421072      0.516964      1.485432
O       5.66384     13.37210      0.58786         0.229761     -0.021649      0.458959
O       5.72772     13.39827     13.77790        -0.117018     -0.037048     -1.884988
O       5.73974      1.75231      4.88987        -0.665106      0.320826      1.089587
O       5.65596     13.25459      4.95497         0.108994      0.634007     -0.856325
O       5.57567      2.03683      9.36485         0.232358     -0.738509     -0.417182
O       5.66709     13.46140      9.30850        -0.120639     -0.073736      0.648614
O       5.70126      5.76157      0.41908        -0.095871     -0.308104      0.532500
O       5.57900      5.77376     13.73523         0.599393      0.082132     -1.078765
O       5.58974      5.80586      4.88696         0.502101     -0.286610      0.093723
O       5.61419      5.64953      9.32667         0.157055      0.097366     -0.248669
O       5.72345      9.58742      0.53820        -0.028368      0.060007     -0.103420
O       5.70946      9.65434     13.71113        -0.059025     -0.371353     -0.477860
O       5.79135      9.61056      4.96940        -0.052045     -0.389736     -1.147847
O       5.84422      9.41368      9.26301        -0.434559      0.921365      0.409673
O       9.30011      2.00005      0.61627         0.990081      0.137677     -0.288939
O       9.50660      1.95085     13.50359         0.037807     -0.385638      1.010338
O       9.42801     13.45339      0.59991         0.759021      0.084145     -0.008837
O       9.59200     13.35514     13.63666         0.095198      0.267679      0.629141
O       9.58771      1.92339      4.89896         0.214948      0.009424      0.792723
O       9.44670     13.29439      4.88820         0.444484      0.572419      1.558307
O       9.58017      1.86898      9.32759        -0.488247     -0.326038      0.383688
O       9.36079     13.56161      9.39999         0.672061     -0.391161     -1.284451
O       9.50549      5.77633      0.59616         0.387671     -0.135594      0.480059
O       9.54204      6.01439     13.56097         0.384597     -0.562955     -0.978141
O       9.47153      5.60345      5.07922         0.422952      0.351856     -2.006682
O       9.51193      5.70574      9.18517         0.270563      0.207501      1.795043
O       9.63295      9.62541      0.59785        -0.196443     -0.318097      0.248973
O       9.55213      9.51497     13.60936         0.330432      0.472311      0.476461
O       9.50833      9.58105      4.95482        -0.037077     -0.265043     -0.221913
O       9.42470      9.53430      9.29425         0.680399      0.364370      1.116517
O       3.84705      1.90932      2.58033        -0.420320      0.035293      0.438467
O       3.77040      1.85196     15.84090         0.321528      0.343320     -0.318011
O       3.83812     13.34136      2.75056        -1.581835      0.083825      0.198853
O       3.81464     13.44094     15.96421        -0.015097     -0.145815     -0.598007
O      15.31614      1.96493      2.74123        -0.729213     -0.461981      0.012116
O      15.21918      1.92287     15.75394         1.024086      0.166575      0.118693
O      15.27290     13.38905      2.72145        -0.039198      0.382162      0.110014
O      15.34542     13.37342     15.92346        -0.193435      0.159215     -0.211884
O       3.76634      1.85131      7.11274        -0.306915      0.358151     -0.217583
O       3.75592     13.31457      7.11686         0.289465      0.689179     -0.411907
O      15.33450      1.88407      7.19366         1.036905     -0.377231     -0.934774
O      15.32334     13.40747      7.07885         0.457454     -0.133592     -0.536487
O       3.76749      1.86173     11.63481         0.573236     -0.769194     -0.367636
O       3.76833     13.48210     11.61247         0.618700     -0.196066     -0.666328
O       0.01222      1.97518     11.51600        -0.398477     -0.320485     -0.379613
O      15.32037     13.26815     11.53630         0.020321      0.344491     -0.544825
O       3.80496      5.59713      2.74470        -0.581795      0.389715     -0.904984
O       3.80378      5.73375     15.72737        -0.148668      0.044485      1.018315
O      15.19121      5.77394      2.68755         2.062934     -0.187501     -0.066384
O      15.26085      5.84129     15.75964         0.562050     -0.295114      0.165358
O       3.82094      5.85417      7.01460        -0.512617     -0.608729      0.282785
O      15.29927      5.76807      7.14884         1.228519      0.037181     -0.591999
O       3.83596      5.76501     11.62106         0.052792      0.410316     -0.912460
O      15.28598      5.78599     11.47600         1.194758     -1.030898     -0.389903
O       3.95177      9.67293      2.76835        -1.682756     -0.909649     -0.015331
O       3.81618      9.53221     15.77712        -0.152236      0.020624      0.185480
O       0.01641      9.47749      2.82188        -0.134381      0.002691     -0.435641
O       0.02129      9.52865     15.79690        -0.247737      0.383639      0.419818
O       3.81441      9.56700      7.06919         0.526254     -0.310576      0.090897
O       0.00901      9.48531      7.06876         0.205872      0.631223      0.045594
O       3.82759      9.54055     11.40771         0.229044      0.309838      0.101797
O      15.31453      9.68734     11.37616        -0.350109     -0.242632     -0.170933
O       7.61956      1.91371      2.86349        -0.344688      0.030256     -0.729150
O       7.66594      1.91653     15.85187        -0.551741      0.088709     -0.160394
O       7.64578     13.40823      2.77989        -0.041443      0.039059     -0.259019
O       7.75303     13.39808     15.85804        -0.895906      0.286724     -0.225446
O       7.64320      2.01534      7.01330        -0.920526     -0.866926      0.541191
O       7.65375     13.42837      7.23188        -0.256773      0.247518     -0.664106
O       7.62247      1.86269     11.48536        -0.817103      0.154875     -0.416994
O       7.63153     13.26903     11.57144        -0.639972      1.045178     -0.257945
O       7.63759      5.71345      2.66171        -0.181660      0.292210      0.153974
O       7.67283      5.74578     15.74314        -0.134737      0.241671      0.084130
O       7.64306      5.74090      7.13356        -0.330637     -0.534150     -0.112255
O       7.61589      5.74670     11.54342        -0.116635     -0.117960     -0.681827
O       7.65353      9.50936      2.76901         0.361665      0.196731     -0.269898
O       7.70998      9.50952     15.77101        -0.127917      0.445187      0.265849
O       7.68176      9.59574      7.17157        -0.461843     -0.253780     -0.254130
O       7.64605      9.61619     11.55825         0.289209      0.156377     -0.244963
O      11.50851      1.98852      2.69558         0.119360     -0.260864      0.038944
O      11.45621      1.97353     15.72036         0.546750     -0.225534      0.086755
O      11.47026     13.41506      2.91551        -0.062433      0.190565     -0.678879
O      11.46440     13.39902     15.88783         1.151893      0.652187     -0.188014
O      11.52364      1.91733      7.12269         0.046101     -0.141270     -0.174807
O      11.47164     13.44010      7.13985        -0.780592     -0.175496     -0.135039
O      11.47438      1.68418     11.42859         0.051555      0.495766     -0.115390
O      11.43362     13.42249     11.51722         0.347307      0.297660     -0.208775
O      11.45006      5.78062      2.81861        -0.242909     -0.329644      0.054605
O      11.45811      5.89536     15.67940        -0.027205     -0.625940      0.186604
O      11.49870      5.61699      7.20967         0.477273      0.486581     -0.480162
O      11.59102      5.80294     11.51076        -1.682192      0.011170     -0.860683
O      11.51794      9.57937      2.85065        -0.327229      0.115198     -0.349727
O      11.46338      9.55778     15.81774         0.315546      0.198700     -0.234015
O      11.42055      9.42021      7.05609         1.170317      0.848702      0.460751
O      11.54346      9.60504     11.43002        -0.915926     -0.396043     -0.325927
O       1.75842      3.74320      2.76225         0.590984      1.661496     -0.020783
O       1.84520      3.89600     15.93462        -0.103975     -1.038420     -0.867656
O       1.81643     15.35902      2.78142         0.244366     -0.215901     -0.435897
O       1.84040      0.02333     15.93823         0.228077      0.309066     -0.686045
O      13.44546      3.93091      2.80166        -0.418787     -1.511187     -0.144264
O      13.34620      3.86544     15.82633         0.009321     -0.346578     -0.462162
O      13.35244      0.02188      2.79534         0.307100      0.001828     -0.509775
O      13.44294     15.34305     15.70793        -0.475311      0.196353      0.234625
O       1.85373      3.86951      7.07572         0.337268     -0.711636     -0.796374
O       1.85876     15.32672      7.04384         0.507364     -0.256885     -0.564462
O      13.54331      3.73399      7.08304        -0.488687      0.771481     -0.126088
O      13.37420     15.33452      7.17888         0.429286     -0.664853     -0.459935
O       2.04020      3.82862     11.41033        -0.660246      0.011042      0.249058
O       1.80651     15.25707     11.58652         0.125903      0.748250     -0.790198
O      13.30438      3.79037     11.47406         0.374772     -0.293905     -0.647579
O      13.48131     15.21968     11.53637        -0.202180      1.439442     -0.367691
O       1.95316      7.53461      2.71979         0.020132      0.812729     -0.255615
O       1.87403      7.66292     15.80558         0.428255      0.773393      0.378461
O      13.34655      7.67398      2.77305         0.101189      0.186501     -0.121421
O      13.40455      7.71285     15.94800        -0.093862     -0.280927     -0.487734
O       1.92896      7.64155      7.20489        -0.329270     -0.490787     -0.433358
O      13.43507      7.61856      7.28830        -0.483135     -0.014563     -0.788390
O       1.83396      7.63635     11.36473         0.300720      0.126396     -0.134504
O      13.48971      7.62724     11.30125        -0.373362      1.030927     -0.011931
O       1.80240     11.43493      2.63451         0.239651      0.185915      0.530111
O       1.91834     11.45862     15.86883        -0.132436      0.289761     -0.047921
O      13.51636     11.47553      2.91116        -0.839257      0.330908     -0.741037
O      13.37835     11.49078     15.89075         0.413460      0.147996     -0.491717
O       1.98266     11.47630      7.00292        -0.849258     -0.158565      0.058819
O      13.37451     11.52757      7.09440        -0.051034     -0.802040     -0.092250
O       1.93353     11.42424     11.39986         0.240970      1.435609      0.305883
O      13.23453     11.50324     11.52744         0.771628     -0.297742     -0.311998
O       5.77874      3.82887      2.61345        -0.307237     -0.343726      0.149827
O       5.69809      3.85016     15.81242         0.051293     -0.964682      0.019472
O       5.69537     15.31318      2.66542         0.125536      0.460917      0.042085
O       5.77687     15.29446     15.92240        -0.114602      0.291727     -0.294769
O       5.68580      3.79094      7.00523        -0.121290      0.257323     -0.007892
O       5.58337     15.30144      7.14467         0.699543      0.189891     -0.299563
O       5.58519      3.73094     11.54411         0.903131      0.902102     -0.253775
O       5.77173     15.30496     11.58289        -0.135392     -0.366968     -0.394038
O       5.71827      7.57012      2.62088        -0.158246      1.013403      0.241940
O       5.72776      7.64749     16.02190         0.103631      0.227874     -0.961352
O       5.82549      7.63575      7.08922        -0.464182      0.193944     -0.113849
O       5.75786      7.74835     11.37455        -0.196846     -1.672126      0.496068
O       5.76859     11.46536      2.89123         0.033152      0.048673     -0.935154
O       5.85622     11.42429     15.89414        -0.696829      0.848749     -0.384867
O       5.76288     11.46078      7.16025        -0.200958      0.441760     -0.155478
O       5.72949     11.53650     11.50632        -0.558288     -0.393379     -0.151393
O       9.56412      3.81055      2.85279        -0.010385      1.034613     -0.357798
O       9.48492      3.85374     15.70327         0.555931      0.272108      0.235746
O       9.48075      0.05349      2.75108         0.712938     -0.686125     -0.211865
O       9.62535      0.08805     15.81945        -0.145490     -1.140692     -0.054151
O       9.55741      3.76591      7.24010         0.332945      0.512932     -0.303763
O       9.52633      0.06049      7.14360         0.125338     -1.214130     -0.171412
O       9.48417      3.85178     11.48554         0.621764      0.243409     -0.478308
O       9.44601     15.27917     11.60709         0.342657     -0.026009     -0.417973
O       9.55497      7.66235      2.86558         0.028096      0.067179     -0.238778
O       9.53845      7.69416     15.81992         0.082370      0.187380     -0.045879
O       9.56638      7.65808      7.22562        -0.091979     -0.739685     -0.657561
O       9.51897      7.65177     11.46672         0.419726      0.030987     -0.477156
O       9.59750     11.49220      2.78057        -0.119831     -0.163333     -0.339760
O       9.63703     11.57394     15.83619        -0.286216     -1.031852     -0.213046
O       9.54997     11.49498      7.12845         0.373245      0.534341      0.326863
O       9.49646     11.52480     11.41282         0.779272     -1.437927      0.101128
