  # total energy = -7879.24890425 
CRSYTAL
PRIMVEC
    15.2000000000000000    0.0000000000000000    0.0000000000000000
     0.0000000000000000   15.2000000000000000    0.0000000000000000
     0.0000000000000000    0.0000000000000000    17.000000000000000
PRESSURE
7.37307 6.97854 2.26276 -0.298523 0.077658 -0.079263
PRIMCOORD
320 1
Pb       3.83041      3.61967      4.13025         0.281967      0.428438      0.285419
Pb       3.78861      3.70931     16.86343        -0.038742      0.455912      0.326971
Pb       3.78831     15.13496      4.13058         0.814412      0.070838      0.789033
Pb       3.60572     15.18937     16.89897         0.809653     -0.227548      0.056923
Pb       0.02230      3.56527      4.16177        -0.232331      0.722598      0.381668
Pb      15.15154      3.79703      0.04746         0.009349      0.283754     -0.102731
Pb      15.14363     15.10265      4.31174         0.165465     -0.291734     -0.039286
Pb      15.02746     15.19601      0.11517        -0.159893     -0.541250     -0.564018
Pb       3.73154      3.94166      8.59189         0.199164     -0.679717     -0.615687
Pb       3.80447     15.07760      8.61492        -0.443568      0.703870     -0.827646
Pb       0.12726      3.77638      8.52982        -0.245402      0.195930     -0.232230
Pb      15.15405     15.13607      8.29616         0.791066      0.276060      0.029023
Pb       3.71723      3.82135     12.68147         0.173183      0.100361      0.208034
Pb       3.63691      0.10794     12.79565         0.489888     -0.384652     -0.087551
Pb      15.05469      4.01389     12.70221         0.012758     -0.639942     -0.460255
Pb      15.14355      0.16530     12.80178        -0.460844     -0.471285     -0.439273
Pb       3.82593      7.48484      4.16187         0.202010     -0.172294     -0.191567
Pb       3.69586      7.53480     16.81258         0.144357     -0.141002      0.333992
Pb       0.01029      7.61822      4.27948        -0.217603     -0.052174     -0.566587
Pb      14.94523      7.55081      0.01779         0.692634     -0.060270     -0.007819
Pb       3.85320      7.66171      8.49933        -0.252769     -0.092407      0.164447
Pb       0.13636      7.60599      8.43183        -0.425884      0.274769      0.180530
Pb       3.75560      7.66077     12.75295         0.205269      0.073067     -0.102775
Pb       0.05546      7.68313     12.71050        -0.581488      0.019344     -0.324544
Pb       3.86856     11.15652      4.15438        -0.172330      0.607597      0.838557
Pb       3.76609     11.36344      0.08705        -0.240238     -0.300419     -0.680892
Pb       0.15819     11.28695      4.16416        -0.718444      0.063163      0.145274
Pb      15.10423     11.36509      0.07868         0.241935      0.130762     -0.173706
Pb       3.84084     11.37948      8.55793        -0.268762     -0.263912     -0.063805
Pb       0.15279     11.46954      8.32229        -0.268070     -0.802620      0.828582
Pb       3.73440     11.46941     12.79583         0.549733     -0.258371     -0.383169
Pb       0.04099     11.40610     12.91044        -0.193600      0.182161     -0.838666
Pb       7.54264      3.72374      4.35440        -0.100216     -0.028521     -0.815464
Pb       7.54896      3.71417     16.85698        -0.012322      0.268164      0.045347
Pb       7.61168     15.07867      4.22602        -0.448798      0.610485      0.071284
Pb       7.60916     15.19424     16.88237         0.004519     -0.230145      0.134938
Pb       7.40111      3.73830      8.76300         0.373707      0.145180     -0.954136
Pb       7.64186      0.00073      8.57539        -0.270617      0.308553     -0.629880
Pb       7.66368      3.92109     12.79266        -0.113051     -0.490209     -0.242142
Pb       7.51063     15.05011     12.80485         0.561211      0.637852     -0.759009
Pb       7.66326      7.52661      4.08351        -0.455910     -0.977467      0.252643
Pb       7.70894      7.66735     16.97690        -0.798464     -0.264978      0.216200
Pb       7.50106      7.59683      8.51482         0.280658     -0.388473      0.278453
Pb       7.48819      7.65971     12.66916         0.663923     -0.265693      0.369048
Pb       7.62212     11.36217      4.35767        -0.132998      0.209929     -0.262005
Pb       7.54701     11.37482     16.89961         0.213863      0.087180      0.082726
Pb       7.69630     11.37993      8.68478        -0.440254     -0.063783     -0.479851
Pb       7.60789     11.45254     12.78067        -0.188684      0.033897     -0.838965
Pb      11.21940      3.75313      4.42297         0.248682      0.243872     -0.410886
Pb      11.24831      3.66345      0.00319         0.133194      0.715645     -0.749299
Pb      11.31300     15.14719      4.25055         0.358382      0.129084      0.402333
Pb      11.34963      0.12852      0.10612        -0.045042     -1.005221     -0.958105
Pb      11.42717      3.88105      8.52616        -0.363147      0.106511     -0.074654
Pb      11.50332      0.02566      8.30531         0.002117     -0.000286      0.546222
Pb      11.33322      3.83986     12.70514         0.349543      0.331429     -0.315990
Pb      11.44827     15.18711     12.59785        -0.068859      0.063495     -0.363037
Pb      11.28211      7.56216      4.29081         0.333839     -0.671049      0.135027
Pb      11.40230      7.61694     16.97901        -0.316764     -0.317743     -0.201931
Pb      11.37062      7.56783      8.61640         0.198006     -0.026111     -0.930038
Pb      11.49713      7.72636     12.80638        -0.128409     -0.304573     -0.593160
Pb      11.26611     11.29012      4.26798         0.591956      0.299802      0.292124
Pb      11.35637     11.46744     16.98416         0.236269     -0.050300     -0.035412
Pb      11.48224     11.36190      8.35429         0.532973     -0.279315      0.622544
Pb      11.42461     11.57189     12.54622         0.242857     -0.589832      0.222867
Ti       1.88373      1.78310      2.17387         0.387263      0.517043     -0.085558
Ti       1.78449      1.86349     15.01636         0.077119      0.527855     -0.742409
Ti       2.01236     13.24681      2.21176        -1.639914     -1.214595     -0.870376
Ti       1.86148     13.21516     15.05873         0.011671     -0.522519      0.890799
Ti      13.23045      1.83478      2.27868        -0.007202     -0.064156      1.062639
Ti      13.24896      1.85243     14.89163        -0.532736      0.090340     -0.044770
Ti      13.31994     13.16841      2.34438         0.431317      0.170339     -0.902240
Ti      13.25824     13.26856     14.98304        -0.045120      0.174780     -0.425274
Ti       1.94893      1.88701      6.43349         0.239351     -1.552894      0.164170
Ti       2.03233     13.15926      6.39634        -0.397937      1.686249      0.772753
Ti      13.31927      2.02984      6.54975        -0.385308     -1.335456     -0.740422
Ti      13.36884     13.18606      6.34982         0.623713      0.933196     -0.023861
Ti       1.77767      1.91392     10.73032         0.602923      0.573600     -0.737873
Ti       1.90242     13.36644     10.82436        -0.184533     -1.494471     -1.470921
Ti      13.27019      1.95068     10.57736         0.464538      0.078809      0.235778
Ti      13.44766     13.34068     10.56204        -1.079531     -0.285029      1.690620
Ti       1.83594      5.62471      2.21225         0.657303      0.432993     -1.092667
Ti       1.82521      5.58679     14.86574        -0.051684      0.983747      1.262287
Ti      13.25427      5.59140      2.30777        -0.328064      0.312740     -0.163001
Ti      13.24723      5.56238     15.00937        -1.247649      1.279867      0.247210
Ti       1.95618      5.62154      6.36858        -0.513298      0.534749      0.575036
Ti      13.39968      5.65699      6.43753        -2.022730      0.759031     -0.098800
Ti       1.87183      5.71962     10.72875         0.270562      1.284167      0.116359
Ti      13.30790      5.83210     10.62473        -0.380068     -0.218235      1.664714
Ti       1.93390      9.41755      2.19261        -0.940335     -0.686114     -1.318939
Ti       1.79387      9.40075     14.98005         0.562241      0.673882     -0.017827
Ti      13.20375      9.40344      2.23192         1.312540      0.248498      0.606475
Ti      13.22224      9.53284     14.98739        -0.101673     -0.527156     -0.234007
Ti       1.91772      9.40463      6.45540         0.708548     -0.245493     -0.010158
Ti      13.30181      9.39848      6.47834         0.244277     -0.144541     -0.416401
Ti       1.88628      9.54885     10.81017        -0.056000      0.260523     -1.213567
Ti      13.30746      9.59385     10.65153         0.579510     -0.611170     -1.591919
Ti       5.69769      1.87747      2.13867         1.265215     -1.446611      0.874980
Ti       5.66129      1.81817     14.88768        -0.212816      0.218075      0.219256
Ti       5.75024     13.22188      2.19609         0.218313      0.863059      0.829701
Ti       5.65583     13.28740     14.96527         0.163423     -0.384918     -0.470142
Ti       5.62939      1.86267      6.55957         0.019104     -0.074907     -0.844633
Ti       5.79534     13.27490      6.55852        -1.721794      0.399511     -0.056372
Ti       5.60490      1.89782     10.79152         1.007748     -0.355950      0.239582
Ti       5.71012     13.39902     10.68582        -0.007250     -1.250733      1.758389
Ti       5.65957      5.63514      2.07838         0.783470     -0.106062      1.318911
Ti       5.67945      5.64942     14.84335        -0.412517      0.369948     -0.001129
Ti       5.70063      5.64376      6.47229        -0.365258     -0.063906     -1.046297
Ti       5.66837      5.69188     10.78439        -0.103322      0.612518      0.865981
Ti       5.77092      9.45220      2.21352        -0.616351     -0.791873     -0.471972
Ti       5.64268      9.51583     14.91882         0.082124     -0.563079      0.106537
Ti       5.74542      9.50014      6.52161        -1.312244     -0.343915      0.689072
Ti       5.69664      9.57866     10.78101        -0.771829     -0.116410      0.389027
Ti       9.54481      1.81060      2.25057        -2.534205      1.057873      0.482912
Ti       9.46118      1.82798     14.82091         0.317026      0.435321     -0.261361
Ti       9.51054     13.20537      2.21873        -0.261143      0.253051      0.319966
Ti       9.54779     13.27498     14.80667        -0.083436      0.093600      0.659327
Ti       9.43937      1.93625      6.58386        -0.067937     -0.584855     -0.435969
Ti       9.56903     13.27700      6.54523        -0.955720      0.279330     -0.715499
Ti       9.43366      1.89978     10.66449        -0.088385     -0.773485      1.062536
Ti       9.56797     13.32028     10.56063         0.231270      0.370147      1.953228
Ti       9.53388      5.57647      2.10296        -2.066884      0.212957      1.210760
Ti       9.41283      5.73582     14.97527         0.424575     -0.198861     -0.968305
Ti       9.43475      5.64338      6.56398         0.694186      0.924729     -0.420486
Ti       9.49312      5.67844     10.72999         0.256566      0.865583      0.667599
Ti       9.52411      9.45127      2.26458        -1.153370     -0.111550     -0.749583
Ti       9.48778      9.55792     14.90914         0.126468     -0.486770      0.047782
Ti       9.43748      9.48140      6.63090         0.594177     -1.249604      0.356105
Ti       9.50529      9.48123     10.69129         0.575665     -0.424633      1.048902
O       1.88661      1.68776      0.33693        -0.343264      0.545801      1.288421
O       1.78028      1.93580     13.18114        -0.007880     -0.042465      0.730979
O       1.97468     13.07765      0.29002        -0.158066      0.973217      1.938221
O       1.96187     13.05915     13.31222        -0.741219      0.623514     -1.303611
O      13.13783      1.81730      0.50363         0.425946     -0.227849     -0.175871
O      13.27855      1.94324     13.09575         0.129756     -0.198027      0.829587
O      13.45323     13.18711      0.48223        -0.291929      0.609315      0.675121
O      13.16343     13.32138     13.18603         0.406826     -0.212355      0.632797
O       1.98021      1.82172      4.60940        -0.101037      0.320140      0.393430
O       1.97003     13.10699      4.65883         0.336626      0.525132     -1.149593
O      13.04927      1.96508      4.74161         0.973399     -0.105058      0.396249
O      13.38876     13.22776      4.54979        -0.276292     -0.211343      0.681207
O       1.75003      1.96139      8.93622         0.327227     -0.081890      0.527132
O       1.96352     13.22998      9.00563        -0.463296      0.410528      1.239799
O      13.34124      1.83443      8.75886        -0.047275      0.135604      0.962753
O      13.44887     13.29572      8.82168        -0.103693     -0.007453     -0.748783
O       1.85485      5.56866      0.38229        -0.323085      0.302016      1.170918
O       1.70982      5.62719     13.09935         0.140301      0.019893      0.038786
O      13.29939      5.53429      0.46778        -0.159037      0.250823      0.717894
O      13.19227      5.70905     13.22343         0.394601     -0.482345      0.609196
O       1.94930      5.64632      4.61696         0.043269     -0.186493     -0.591791
O      13.16002      5.53211      4.65601         0.432789      0.390903      0.118310
O       1.85774      5.75157      8.94065         0.098738     -0.174332     -0.056625
O      13.33029      5.89609      8.90985        -0.020399     -0.237169     -1.124713
O       1.94399      9.38427      0.36514         0.091143      0.032816      0.703492
O       1.78034      9.51124     13.11125        -0.109028      0.127550      1.596089
O      13.10308      9.29357      0.45559         0.377464      0.664168     -0.314838
O      13.16038      9.55771     13.20572         0.505490     -0.117564     -0.001825
O       2.06406      9.35713      4.65188        -0.596229      0.209249      0.073156
O      13.33147      9.36133      4.63134        -0.227050      0.196857      0.953518
O       1.89658      9.51914      8.98053         0.096941     -0.165168      0.276384
O      13.33056      9.53982      8.79555        -0.204210     -0.263028      1.096605
O       5.74614      1.85636      0.38424        -0.215929     -0.060352     -0.780474
O       5.68884      1.78656     13.13268        -0.435993     -0.004010     -0.167669
O       5.73863     13.14511      0.44524         0.023553      0.455523     -0.438944
O       5.75405     13.29599     13.15161        -0.066289     -0.229942      0.648070
O       5.59238      1.84485      4.72596         0.182683      0.057777      0.838554
O       5.65580     13.32436      4.78631         0.209835     -0.150384      0.096817
O       5.63672      2.02269      9.01394         0.073711     -0.424149     -0.265034
O       5.60089     13.44736      8.93710         0.605085     -0.524865     -0.159663
O       5.71660      5.58726      0.33514        -0.281321     -0.188779     -1.002984
O       5.71298      5.60027     13.03094         0.122893      0.047226      1.040506
O       5.73168      5.54152      4.61157        -0.206699      0.444760      1.718443
O       5.69496      5.71038      8.99902        -0.278124     -0.420503      0.018843
O       5.87472      9.38966      0.44506        -0.546648      0.390706      0.013654
O       5.66926      9.54345     13.13980         0.469606      0.311504      0.037286
O       5.62202      9.46878      4.74748         0.362899     -0.203355     -0.188089
O       5.68832      9.50432      8.99405        -0.083053     -0.031037      0.371914
O       9.54412      1.73706      0.44749        -0.075455      0.338126     -0.201984
O       9.40120      1.82118     13.04850         0.569309      0.103131      0.784006
O       9.40396     13.22601      0.45408         0.267731      0.101386      0.517066
O       9.56242     13.25967     12.99287        -0.047468      0.003376      1.203909
O       9.51552      1.80401      4.75640         0.014362      0.333549      0.448409
O       9.46889     13.20579      4.71990         0.358708      0.224064      0.853584
O       9.49849      1.98379      8.89187        -0.236466     -0.357044     -0.143280
O       9.59810     13.23642      8.81841        -0.328232      0.188884     -1.052773
O       9.43430      5.60076      0.35278        -0.027958     -0.201187     -0.938480
O       9.33353      5.69877     13.14407         0.550118     -0.111486      0.667690
O       9.43656      5.68244      4.71409        -0.080351      0.022560      1.256625
O       9.46228      5.57688      8.97014         0.165307      0.335923     -0.211695
O       9.48333      9.54122      0.49210        -0.043807     -0.191260      0.262645
O       9.56453      9.49156     13.14086        -0.230137      0.455390      0.172613
O       9.36898      9.47239      4.87048         0.254709     -0.373853     -1.004251
O       9.46775      9.38345      8.91952         0.158914      0.714005      0.023006
O       3.82107      1.81679      2.58512        -0.810800     -0.065486     -0.735289
O       3.65779      1.86704     15.34858         1.101703     -0.567979     -0.392776
O       3.80677     13.26197      2.56385         0.790634     -0.541527     -0.273409
O       3.82060     13.25854     15.22104        -0.784849      0.312154      0.594314
O      15.18316      1.71736      2.66072         0.195121      0.151514     -0.655032
O      15.09643      1.98625     15.36700         0.153077     -0.294962      0.030988
O       0.08531     13.22118      2.68799         0.125848      0.429606     -0.442653
O      15.15967     13.10299     15.33054         0.424827      0.307218     -0.142465
O       3.79242      1.86536      6.95365        -0.927406      0.078828     -0.161208
O       3.77488     13.33490      7.07547         0.697767     -0.247603     -0.898019
O      15.19006      1.93772      6.73003         0.310433      0.296653     -0.118059
O       0.11149     13.25530      6.72302        -0.658059     -0.017247     -0.011024
O       3.72126      1.78257     11.12190        -0.533230      0.225119      0.047893
O       3.79389     13.39722     11.16582        -0.664686      0.343083     -0.098819
O      15.16978      2.02599     11.02852        -0.767276      0.275736      0.392544
O      15.16907     13.15379     11.22208         0.953957      0.203210     -0.117553
O       3.74679      5.66391      2.40655         0.243521     -0.471744      0.504695
O       3.69761      5.60530     15.03718         1.153650      0.122025      0.582196
O      15.15944      5.59523      2.69606        -0.069214      0.148318     -0.353795
O      15.10948      5.56446     15.36636        -0.137890     -0.171488     -0.303497
O       3.74878      5.73206      6.91882         0.905580     -0.149334     -0.293936
O      15.18021      5.70894      6.78500         1.605442     -0.423680     -0.102699
O       3.75887      5.79561     11.18887         0.371435     -0.653505     -0.386686
O       0.00010      5.70874     11.04613        -0.380170      0.135173      0.123127
O       3.79784      9.41908      2.51572         0.816067      0.246333      0.040549
O       3.79581      9.31666     15.16095        -0.818912      0.214179      0.509693
O      15.11870      9.42132      2.52740         1.119734     -0.321087      0.105761
O      15.08958      9.45804     15.39042         0.969276     -0.198863     -0.263088
O       3.78965      9.40678      6.98835         0.326297      0.433653     -0.549679
O       0.03984      9.45833      6.87348         0.250536      0.033703     -0.662813
O       3.79739      9.51735     11.19914         0.231372     -0.147247     -0.279628
O      15.14763      9.48458     11.03818         0.729976      0.463629      0.549627
O       7.60840      1.72242      2.57677         0.382357      0.346898     -0.022864
O       7.56605      1.78979     15.18541         0.346388      0.069955      0.447941
O       7.64288     13.14508      2.71843        -0.370875      0.489422     -0.529809
O       7.61435     13.20461     15.17538         0.120549     -0.044400      0.173134
O       7.55721      1.88887      6.85709        -0.009652      0.300100      0.374317
O       7.58976     13.25888      6.87674         0.799303     -0.207886      0.344015
O       7.56643      1.88334     11.01131         0.152158      0.383113     -0.366145
O       7.67049     13.22210     11.01292        -1.123060      0.113320     -0.273277
O       7.53068      5.74293      2.42223         0.716002     -0.260257      0.360730
O       7.53391      5.48623     15.23742        -0.482369      0.136687      0.210825
O       7.53163      5.68571      6.91567         0.141766     -0.104880     -0.214347
O       7.60732      5.70792     11.07584        -0.972180     -0.859220     -0.175784
O       7.61014      9.42771      2.65900         0.186967      0.064279     -0.051553
O       7.57784      9.60368     15.30622         0.173159     -0.024818     -0.290939
O       7.54805      9.53540      7.12917         0.582770     -0.136084     -0.969747
O       7.61604      9.59617     11.10450        -0.353303      0.290833     -0.092241
O      11.35912      1.84863      2.63737         0.442829      0.049717     -0.139240
O      11.35916      1.72160     15.26552        -0.060233      0.188106      0.136199
O      11.41654     13.06828      2.56633        -0.469645      0.439252      0.035083
O      11.40224     13.26045     15.35778        -0.430149      0.124153      0.041950
O      11.37772      1.87313      6.88799        -0.096269      0.214663     -0.025952
O      11.46777     13.31118      6.73195        -0.238744     -0.281736     -0.020549
O      11.49530      1.81898     11.01253        -1.385990      0.100518     -0.144836
O      11.47298     13.33115     10.94612        -0.286218      0.688902     -0.124052
O      11.28803      5.56877      2.59738         2.187917      0.003649     -0.003656
O      11.22751      5.66532     15.32175         1.547439      0.266417      0.084801
O      11.41109      5.68980      6.89152        -0.476929     -0.189352      0.019457
O      11.41504      5.78806     11.08258        -0.733138      0.136534     -0.159079
O      11.32953      9.43576      2.65863         0.521525      0.384526      0.378913
O      11.37797      9.45785     15.33263        -1.123885     -0.295447      0.236550
O      11.41629      9.42312      6.83784        -0.268104      0.552434     -0.061696
O      11.47423      9.40087     10.96704        -1.879213     -0.251180      0.216401
O       1.89587      3.68972      2.53011        -0.378882     -0.534437     -0.257236
O       1.92780      3.79248     15.44682        -0.859502     -0.982031     -0.591339
O       1.98124     15.08439      2.50670        -0.421671      0.725628     -0.172005
O       1.83554     15.15544     15.25656        -0.383351     -0.245012      0.082139
O      13.30798      3.69554      2.61631         0.078283     -0.198809     -0.192447
O      13.04603      3.70974     15.42703         0.591329      0.030445     -0.508628
O      13.23452     15.09903      2.68895         0.072638      0.723719     -0.365694
O      13.33708     15.14818     15.37776         0.292888      0.546018     -0.000462
O       1.94171      3.77043      6.87617        -0.269677      0.305464     -0.151634
O       1.83905     15.19579      6.73217         0.276754      0.018222      0.074481
O      13.28631      3.84287      7.00775         0.097139     -0.361333     -0.357249
O      13.37626     15.13580      6.80061        -0.240644      0.271697     -0.539866
O       1.93557      3.91108     11.05780        -0.007690     -1.872543     -0.113528
O       1.65440      0.04804     11.16588         0.631256     -0.673246      0.005489
O      13.20066      3.89507     10.94400         0.344896     -0.805279      0.023843
O      13.42424      0.00598     11.08008         0.079872      0.334659     -0.407756
O       1.88260      7.57130      2.50269        -0.181635     -1.082687      0.464536
O       1.87357      7.51644     15.31402        -0.648788     -0.207088     -0.359656
O      13.23955      7.53824      2.53067        -0.154448     -1.158259      0.343951
O      13.18114      7.54882     15.45986         0.328250     -0.676150     -0.670119
O       1.90074      7.52786      6.68006        -0.252622      0.088668      0.496162
O      13.33725      7.56005      6.78650         0.000708      0.090226     -0.147748
O       1.94216      7.68977     11.18112        -0.649833     -1.363580     -0.136133
O      13.38817      7.65005     11.20162        -0.410059     -0.190873     -0.325055
O       1.89379     11.28217      2.60399         0.352656      0.752303     -0.452353
O       1.96052     11.26267     15.44706        -0.118003     -0.065809     -0.641074
O      13.42348     11.31596      2.47266        -0.596747     -0.415508      0.398433
O      13.22932     11.35974     15.38755         0.012695      0.160442      0.126506
O       1.98580     11.32255      6.73443        -0.012810     -0.177968      0.307572
O      13.43970     11.38894      6.79315        -0.823937     -0.412384     -0.292658
O       1.94951     11.39964     11.14175        -0.209608      0.989633      0.240296
O      13.16578     11.41723     10.92568         0.450563      0.531109      0.185808
O       5.82220      3.64734      2.62310        -0.617491      1.516942     -0.399818
O       5.59660      3.65522     15.25853         0.201044      1.048896      0.017547
O       5.76657     15.12694      2.58881        -0.414089     -0.610716     -0.231565
O       5.66405     15.16993     15.32610        -0.019497     -0.590932      0.186995
O       5.56351      3.78292      6.89411         0.460930      0.624537      0.087257
O       5.67050      0.01980      6.99852         0.269722     -0.621461     -0.129916
O       5.63507      3.72046     11.16579        -0.171941      1.386749     -0.354343
O       5.70866     15.19656     11.18895         0.090907     -0.090172     -0.339446
O       5.64641      7.51545      2.47993         0.057920      0.760013      0.385200
O       5.71251      7.52788     15.13035         0.320072     -0.296272      0.396908
O       5.68260      7.58412      6.90582         0.178616     -0.226810     -0.268501
O       5.66857      7.60005     11.13414         0.273563      0.232237     -0.266428
O       5.71161     11.36273      2.68559         0.031062     -0.578597     -0.491281
O       5.52819     11.35905     15.43987         0.667365      0.142826     -0.514908
O       5.64933     11.36193      6.91279         0.030994      0.459120     -0.074060
O       5.57367     11.46672     11.05892         0.601635      0.059460     -0.166386
O       9.40713      3.77934      2.69319         0.004718     -1.259284     -0.484483
O       9.50601      3.75657     15.20036        -0.141139     -1.292901      0.269837
O       9.53231     15.16024      2.61085         0.302566     -1.419991     -0.068590
O       9.51670     15.10719     15.28315        -0.426946      0.224655     -0.078399
O       9.44651      3.81279      6.94560         0.256107     -0.582600     -0.533107
O       9.36824     15.15762      6.88315         0.787706      0.077374      0.064090
O       9.55413      3.75700     11.14531        -0.111215      0.465379     -0.233026
O       9.39143      0.01160     11.04773         0.712061     -0.446396     -0.561785
O       9.55834      7.47761      2.52582        -0.419079      1.363511      0.281445
O       9.30027      7.63020     15.33783         0.681211      0.091339     -0.377128
O       9.53643      7.55092      6.99776        -0.691208      0.176279     -0.381611
O       9.30858      7.59614     11.14119         0.961155      0.422214     -0.683398
O       9.47578     11.33075      2.81350        -0.100101     -0.469689     -0.800156
O       9.58888     11.41369     15.43347        -0.469736     -0.102952     -0.906241
O       9.50056     11.35640      6.84176         0.069435      0.450755      0.399248
O       9.57859     11.43044     10.94619        -0.046898     -0.745620     -0.136354
