  # total energy = -7879.17636516 
CRSYTAL
PRIMVEC
    15.6000000000000000    0.0000000000000000    0.0000000000000000
     0.0000000000000000   15.6000000000000000    0.0000000000000000
     0.0000000000000000    0.0000000000000000    17.640000000000000
PRESSURE
-6.65608 -6.5603 -7.81103 -0.109055 0.129159 -0.012031
PRIMCOORD
320 1
Pb       3.78344      3.79617      4.44337         0.689880      0.109188     -1.067268
Pb       3.95761      3.96474     17.61280        -0.093751      0.119214     -0.225556
Pb       3.80249     15.46393      4.36595        -0.007940      0.019258     -0.789428
Pb       3.77290     15.57239      0.00362         0.083791     -0.036150     -0.297952
Pb       0.00062      3.87695      4.37657        -0.110571     -0.020046     -0.508942
Pb       0.01559      4.00583      0.01210        -0.036402     -0.037396     -0.569861
Pb      15.55592     15.52801      4.33756         0.058497     -0.359643     -0.358294
Pb      15.43196      0.00062     17.61238         0.028293      0.037425     -0.341026
Pb       3.81180      4.00774      8.83878        -0.002724     -0.223261     -0.639784
Pb       3.87494      0.01740      8.75833        -0.519919      0.248500     -0.589859
Pb      15.54298      3.97892      8.83964         0.343561     -0.201548     -1.061664
Pb      15.56141     15.58274      8.70051        -0.226995      0.223823     -0.511716
Pb       3.94680      3.64185     13.27914         0.173872      0.612987     -0.777670
Pb       3.81948     15.51603     13.15678         0.447791     -0.192879     -0.368506
Pb       0.01614      3.84180     13.20106         0.188689      0.272118     -0.448948
Pb      15.54491      0.05187     13.18062        -0.290004      0.112423     -0.417155
Pb       3.91288      7.77439      4.45277        -0.081054      0.047292     -0.280746
Pb       3.98156      7.78570     17.63545        -0.115380     -0.021476     -0.719616
Pb       0.07989      7.89297      4.39214         0.089793      0.075841     -0.489467
Pb       0.08777      7.81278     17.52143        -0.094008     -0.152173     -0.679919
Pb       3.90746      7.87559      8.85217         0.120140      0.068945     -0.669601
Pb      15.50978      7.80661      8.91605         0.073846     -0.415444     -1.028042
Pb       3.92789      7.73510     13.17447         0.114983     -0.064203     -0.278805
Pb       0.11668      7.83024     13.20357        -0.247973     -0.121862     -0.136710
Pb       3.91713     11.65908      4.38206        -0.093490     -0.183892     -0.418897
Pb       3.89111     11.68491     17.63092         0.256361     -0.108136     -0.814466
Pb      15.55234     11.63913      4.31365         0.302555      0.232972     -0.172363
Pb      15.56906     11.68976     17.47880         0.045473     -0.174115     -0.205565
Pb       3.83133     11.68337      8.85226         0.302677     -0.312151     -0.717239
Pb      15.50739     11.83191      8.79356        -0.162927      0.168992     -0.831401
Pb       3.82891     11.82864     13.17331         0.170643     -0.077378     -0.641966
Pb      15.45300     11.72721     13.19061         0.570389     -0.184216     -0.484253
Pb       7.81973      3.63691      4.55155        -0.297624      0.352885     -1.173284
Pb       7.74295      3.88480     17.62285         0.522582     -0.229717     -0.167545
Pb       7.63253     15.44243      4.42860         0.091410      0.073249     -0.670976
Pb       7.69415      0.02061     17.60324         0.266928      0.073456      0.136791
Pb       7.57360      3.94854      8.81217         0.126673      0.012317     -0.744068
Pb       7.78122     15.59882      8.80432         0.375978      0.085153     -0.982098
Pb       7.99978      3.98355     13.18756        -0.483462     -0.011279      0.103482
Pb       7.81349      0.09059     13.20496         0.080994     -0.284959     -0.474378
Pb       7.93118      7.69727      4.41943        -0.137216     -0.338002     -0.657816
Pb       7.79613      7.86800      0.05824         0.140870     -0.378438     -0.820610
Pb       7.70579      7.84351      8.77539        -0.057513     -0.289980     -0.522873
Pb       7.72465      7.90410     13.14615         1.079548     -0.321561      0.467050
Pb       7.83768     11.66935      4.43010        -0.018972      0.012889     -0.408033
Pb       7.77167     11.69976     17.63093        -0.245448      0.066436     -0.555776
Pb       7.83567     11.75811      8.88693         0.003013     -0.222210     -1.053702
Pb       7.77294     11.82449     13.18354        -0.340358     -0.258970     -0.359323
Pb      11.72491      3.84267      4.42985        -0.193266     -0.104874     -0.645540
Pb      11.76442      3.81769      0.04883         0.035084     -0.068009     -0.836088
Pb      11.54522     15.38398      4.44825         0.053351      0.301599     -0.415812
Pb      11.46203     15.46681      0.02941         0.396262      0.297027     -0.250010
Pb      11.56038      3.94110      8.83019         0.063561     -0.332606     -1.272977
Pb      11.83010      0.04203      8.74479        -0.088736      0.166632     -0.691223
Pb      11.82306      3.93962     13.18748        -0.434302     -0.108217      0.014439
Pb      11.68100     15.55409     13.16811        -0.305921      0.456338     -0.673118
Pb      11.73879      7.65273      4.31441         0.121435      0.389132     -0.658427
Pb      11.64106      7.68829     17.52976         0.265206     -0.010353     -0.192070
Pb      11.56726      7.81553      8.74258         0.034744     -0.322239     -0.301599
Pb      11.72623      7.71370     13.21577        -0.368805      0.124673     -0.551542
Pb      11.68591     11.57748      4.23639        -0.273372      0.036524      0.421304
Pb      11.77236     11.57395     17.48383        -0.332504      0.297206      0.294960
Pb      11.75157     11.65303      8.70291        -0.414238      0.858339      0.015246
Pb      11.58916     11.65916     13.09583         0.035001     -0.249707     -0.208572
Ti       1.85831      1.88144      2.30302         0.589904     -0.365397      0.623413
Ti       1.95564      1.95919     15.60767        -0.432758     -0.080837      0.228687
Ti       1.84714     13.53958      2.25350        -0.102063      0.345693     -0.155327
Ti       1.92893     13.61127     15.55086        -0.050036     -0.131189     -0.974025
Ti      13.55382      1.87484      2.48921         0.327372     -0.183772     -1.104523
Ti      13.71442      1.99222     15.52669        -1.072936      0.032899      0.020377
Ti      13.45985     13.61319      2.30602         0.926970     -0.008367      0.005614
Ti      13.57822     13.61648     15.43380         0.246641      0.877706      1.165416
Ti       1.84209      1.98512      6.75524         0.341792     -1.091223      0.221507
Ti       1.89551     13.57807      6.72306        -0.338534      1.203644     -0.971825
Ti      13.63807      1.98739      6.61408        -0.334694     -1.015856      0.336207
Ti      13.58806     13.66809      6.64574         0.301847     -0.071898     -0.884169
Ti       1.99255      1.90066     11.11530         0.303494      1.006845     -0.292472
Ti       1.83105     13.68646     11.07249         0.691852     -0.833050      1.336650
Ti      13.64837      2.03247     11.09907        -0.501753     -1.215508     -0.477427
Ti      13.60298     13.66684     11.14524        -0.468931      0.598534     -1.457058
Ti       1.97247      5.84605      2.42596         0.887585      0.028128     -1.099519
Ti       2.08976      5.80631     15.46869        -0.746417      0.240676     -0.271476
Ti      13.75912      5.81291      2.29395        -0.226723      0.390068     -0.210105
Ti      13.72327      5.84615     15.49416         0.051802     -0.426500      1.222497
Ti       1.95049      5.90839      6.72505        -0.099316     -0.009115      0.375482
Ti      13.60278      5.88181      6.67970         0.454120     -0.596879     -0.785774
Ti       1.95668      5.80874     11.19096         0.697304     -0.734087     -0.678009
Ti      13.68998      5.83235     11.07166        -0.430566      0.473040      0.979372
Ti       1.96268      9.73373      2.28934        -0.104113     -0.313583      0.580218
Ti       2.02359      9.71688     15.44554        -0.483863     -0.152071      0.927617
Ti      13.65087      9.76112      2.26192         0.355434     -0.397013     -0.869592
Ti      13.60720      9.75190     15.51967         0.617399     -0.961388     -0.131515
Ti       1.83272      9.73689      6.91621         1.077946      0.161313     -2.738481
Ti      13.58644      9.76385      6.75381         0.177600      0.107267     -0.450910
Ti       1.92707      9.71603     11.19292         0.704260      1.114312     -0.509040
Ti      13.60564      9.71092     11.14833        -0.211135     -0.043802      0.815013
Ti       5.80734      1.88489      2.30729         0.009709      0.508327     -0.144299
Ti       5.81667      1.92280     15.64605         0.605359     -0.158879      1.251623
Ti       5.78594     13.50992      2.29981         0.386867      0.150419      0.027965
Ti       5.85600     13.61144     15.56546        -0.041643     -0.453078     -0.150052
Ti       5.78708      1.89464      6.73534         0.039701      0.476906      0.092595
Ti       5.79202     13.69997      6.79620        -0.034971     -0.867304     -1.565492
Ti       5.91609      1.94623     11.11876        -1.277021      0.004210      0.067939
Ti       5.85689     13.69734     11.00524        -0.491674     -0.490408      1.709960
Ti       5.88593      5.84229      2.37585         0.402740     -0.863892      0.322555
Ti       5.99061      5.82000     15.48047        -0.418651      0.264431     -1.335585
Ti       5.86467      5.83221      6.73500        -0.367712      0.023950     -1.114141
Ti       5.88499      5.79710     11.28197        -0.342719     -0.423164      0.163932
Ti       5.86674      9.66110      2.35910        -0.361714      0.319516     -0.657698
Ti       5.89950      9.64219     15.41678         0.208985      0.537462      1.141874
Ti       5.84365      9.87364      6.84886        -0.490814     -0.152330     -0.080153
Ti       5.88003      9.70774     11.16331        -0.481050      1.254927     -0.580145
Ti       9.69600      1.84367      2.39807        -0.570992     -0.007424     -0.845681
Ti       9.83027      1.93018     15.62503        -0.133418      0.442630      0.256411
Ti       9.68771     13.51425      2.25825        -0.472256      0.823391     -0.347748
Ti       9.72225     13.59748     15.50018        -0.187848      0.274735      0.714944
Ti       9.68287      1.92430      6.75331         0.480893     -0.591434     -0.491198
Ti       9.70157     13.59194      6.76602         0.127847      0.014957     -0.863120
Ti       9.77455      2.00587     11.07229         0.477916     -0.916441     -0.020696
Ti       9.69667     13.63066     11.04783         0.443128      0.819449      0.332079
Ti       9.79914      5.74474      2.26143        -1.005834     -0.285398     -0.158776
Ti       9.83683      5.77582     15.55573         0.023172     -0.086227      0.808730
Ti       9.72080      5.80300      6.74335        -0.380248     -0.081949      0.124877
Ti       9.77326      5.87165     11.07563        -0.099896      0.846319     -0.282844
Ti       9.70206      9.68084      2.28666         0.485229      0.363636     -0.483099
Ti       9.77140      9.70245     15.55686        -0.777819     -0.357724     -1.705284
Ti       9.74769      9.69167      6.79591        -0.647930      0.993536     -1.748285
Ti       9.77284      9.76523     11.07400        -0.502515     -0.869603      0.884145
O       1.93245      1.84494      0.54707        -0.062540      0.100658     -0.134421
O       1.95216      1.86509     13.78491        -0.084071      0.188769      1.042301
O       1.87152     13.56688      0.43698         0.262904     -0.299277      0.568605
O       1.98272     13.62666     13.68071        -0.172691      0.285126      1.565002
O      13.59126      1.97663      0.69029         0.127216     -0.284516      0.657511
O      13.66360      2.00795     13.71467         0.313380     -0.228651      0.460366
O      13.42866     13.57536      0.52278         0.213888      0.156554      0.412209
O      13.56751     13.56732     13.67427         0.014160      0.248860     -0.348375
O       1.89986      1.75378      4.98425        -0.022527      0.663660      0.731234
O       1.87821     13.49667      4.92259         0.396544      0.362484      0.662856
O      13.69188      1.68626      4.83582        -0.078949      1.116724      0.539251
O      13.65772     13.60589      4.85280        -0.354620     -0.041772      0.752144
O       2.00052      1.96078      9.35310        -0.192202     -0.035720      0.619205
O       1.82118     13.78289      9.33253         0.073915     -0.643772      0.057339
O      13.56549      1.85256      9.31323        -0.005136      0.515666      1.048180
O      13.66289     13.79521      9.30639         0.046500     -0.596480      1.233244
O       2.16898      5.84443      0.59923        -0.352045     -0.036026      1.375348
O       1.98200      5.80004     13.65126        -0.146748      0.196090      0.765590
O      13.78621      5.64461      0.48244        -0.253281      0.359393      1.701738
O      13.65105      5.83666     13.74038         0.212626     -0.070003     -0.518613
O       1.93336      6.06230      4.94269        -0.269763     -0.747287      0.895486
O      13.68647      5.85298      4.85911        -0.381729     -0.032344      1.235578
O       1.98119      5.78219      9.31303        -0.297652      0.177387      1.661118
O      13.69124      5.87437      9.30468        -0.216833     -0.130075      0.380541
O       1.99589      9.69292      0.53064        -0.023368     -0.032495     -0.422353
O       1.91053      9.64816     13.68983         0.222072      0.139419      0.184300
O      13.62468      9.82136      0.44317         0.174775     -0.115193      1.109345
O      13.57857      9.76598     13.72934         0.168634      0.014634      0.604904
O       1.78289      9.62937      5.02076         0.246770      0.506047      1.957213
O      13.57939      9.86001      4.99088         0.101782     -0.496485      0.937653
O       2.05191      9.62518      9.35738        -0.514426      0.476292      0.740589
O      13.46480      9.64293      9.39282         0.753034      0.116683      0.225000
O       5.83713      1.94828      0.46998        -0.043394     -0.013571      1.442615
O       5.75819      1.93914     13.90246         0.135782     -0.299467      0.063366
O       5.87605     13.38179      0.51429        -0.409664      0.213075      0.499619
O       5.95410     13.62072     13.75216        -0.131720      0.122086      1.427249
O       5.79599      1.75018      4.96531        -0.051623      0.409982      0.719829
O       5.81477     13.62528      4.85321        -0.071253      0.140885      2.006126
O       5.85584      2.04131      9.34146         0.371468     -0.192503      0.272851
O       5.70566     13.67322      9.25499         0.408286      0.133980      0.037371
O       5.81910      5.92110      0.53744        -0.315783     -0.136219      1.384019
O       5.98928      5.79301     13.61119        -0.146059      0.027106      1.505945
O       5.88158      5.80132      4.94737         0.150849      0.328327      1.182227
O       5.87635      5.76078      9.46291         0.107532     -0.018543      0.916225
O       5.88810      9.62902      0.51811        -0.208431     -0.227737      1.602459
O       6.05506      9.67425     13.66535        -0.350541      0.381152      0.272220
O       5.80940      9.96191      5.08609         0.142340     -0.428825      0.178039
O       5.76612      9.73456      9.29002         0.411271     -0.163903      1.703649
O       9.56126      1.88611      0.59082         0.753902     -0.206322      1.209823
O       9.86842      2.03256     13.85145        -0.363955     -0.261408      0.184636
O       9.71409     13.62316      0.45194         0.211358     -0.211579      0.800707
O       9.63799     13.70350     13.71597         0.303177     -0.150965      0.676168
O       9.72789      1.96074      4.94899        -0.042402      0.042549      0.598266
O       9.60465     13.50830      4.95347         0.044385      0.133810      1.032313
O       9.78264      1.93374      9.25164        -0.180077      0.279654      1.281771
O       9.60752     13.63566      9.28114         0.070534      0.209059      0.287365
O       9.80969      5.83567      0.46353         0.082199      0.109835      1.128871
O       9.89784      5.64983     13.77430        -0.233361      0.264385      1.069286
O       9.63684      5.86192      4.96474         0.357233      0.072066      0.309054
O       9.71031      5.97597      9.22534         0.424264     -0.726646      1.449558
O       9.69449      9.60896      0.47897         0.062867      0.190359      0.823345
O       9.74227      9.72441     13.69703         0.323832      0.197285      1.713079
O       9.83327      9.82318      4.94588        -0.351044     -0.269665      1.373582
O       9.73540      9.73311      9.30203         0.048740     -0.101719      0.742638
O       3.92778      1.99756      2.73266        -0.415654     -0.373309      0.087110
O       3.85598      1.87548     16.05646        -0.188177      0.401853     -0.351486
O       3.91019     13.52302      2.64520        -0.534641      0.189356      0.109514
O       3.85838     13.56625     15.87819         0.211864      0.023498      0.171132
O       0.02748      1.79511      2.74282        -0.442615      0.010609      0.060842
O      15.56720      2.01898     15.98731         0.990727     -0.440544     -0.058122
O      15.59644     13.65842      2.56659        -0.565633     -0.293737      0.195097
O      15.48502     13.53615     15.79810         0.613391     -0.057237      0.229181
O       3.85162      1.95069      7.19115        -0.006185     -0.264957     -0.274616
O       3.80992     13.80660      7.12795         0.534567     -0.281818     -0.029757
O      15.50388      1.99132      7.29691         0.335351     -0.220718     -0.626851
O      15.49709     13.57291      6.96586         0.343450     -0.158121      1.039701
O       3.94279      1.94608     11.55100        -0.433454     -0.194503      0.247253
O       3.95132     13.55985     11.58956        -0.295573      0.154160     -0.500315
O      15.57184      2.03550     11.49949         0.716695     -0.386365      0.198705
O      15.56758     13.56721     11.48259         0.204054      0.776192      0.223888
O       3.92482      5.80666      2.95192        -0.443967     -0.140199     -0.516000
O       3.95537      5.74463     15.79362         0.080861      0.207905      0.350106
O       0.01709      5.75239      2.70592         0.074347      0.069516     -0.015491
O       0.05590      5.76983     15.99592        -0.148499      0.279170     -0.206899
O       3.81924      5.71474      7.09297        -0.295316      0.266655      0.007921
O      15.47800      5.86845      7.21419         0.931617      0.019436     -0.000277
O       3.93758      5.87848     11.58710         0.149037      0.231632     -0.230854
O       0.05234      5.77277     11.49815        -0.218778      0.390822     -0.124289
O       3.82929      9.65736      2.74570         0.638905      0.037117      0.067377
O       3.91933      9.63538     15.88278         0.055249      0.115420     -0.267633
O       0.03308      9.76501      2.73452        -0.847477     -0.451676     -0.051264
O       0.01001      9.74867     15.91456        -0.234033     -0.246921     -0.085587
O       3.96317      9.80676      7.22582        -1.109221      0.096409      0.301998
O      15.57507      9.79578      7.18647        -0.881770     -0.356867      0.553424
O       3.99326      9.77624     11.57557        -0.433557      0.015366     -0.082928
O       0.03133      9.80844     11.63370        -0.954128     -0.726330     -0.596986
O       7.75313      1.85669      2.87849         0.148608     -0.130370     -0.119034
O       7.82281      1.86360     16.15364        -0.553826      0.319177     -1.106109
O       7.77203     13.47797      2.65803        -0.151751      0.221919      0.238408
O       7.75404     13.56540     16.05969         0.720639      0.423678     -0.661001
O       7.77682      1.96499      7.06605        -0.270143      0.015662      0.366207
O       7.66551     13.67088      7.14753         0.721523     -0.351004      0.350061
O       7.70073      1.84052     11.64638         1.537399      0.554210     -0.486198
O       7.82544     13.68524     11.45884        -0.102546      0.255413     -0.100746
O       7.86090      5.93746      2.69826        -0.475107      0.502266     -0.082734
O       7.79532      5.81779     15.95468         1.163502     -0.111475     -0.211626
O       7.76959      5.89913      7.18416         0.101222     -0.137153      0.068641
O       7.90205      5.90650     11.59912        -0.682057     -0.426121     -0.380114
O       7.79808      9.75084      2.71905        -0.229129     -0.316516     -0.059367
O       7.78504      9.44804     15.98006         0.453536      1.350405     -0.402737
O       7.80001      9.78936      7.21432        -0.298246     -0.207878      0.057183
O       7.88163      9.65437     11.53330         0.161456      0.346147     -0.662988
O      11.61448      2.00297      2.85166         0.439963      0.057695     -0.178801
O      11.71544      1.95714     16.08529         0.412947     -0.089046     -0.168050
O      11.56331     13.59455      2.79076         1.048640     -0.410215     -0.281061
O      11.63251     13.71245     15.90733         0.430964     -0.564391     -0.405099
O      11.70962      1.84244      7.12326        -0.230252      0.433830     -0.018955
O      11.62686     13.57457      7.00666         0.344779      0.354428      0.331212
O      11.68320      2.04436     11.47955        -0.014830      0.059671     -0.103446
O      11.67145     13.69802     11.40426         0.068617     -0.002409      0.489430
O      11.70173      5.83573      2.71901         0.228622     -0.519601      0.033959
O      11.82905      5.76028     16.01313        -1.280246      0.277817     -0.220893
O      11.64895      5.86693      7.15357         0.213536     -0.382011     -0.074305
O      11.68245      5.80154     11.63346         0.535339     -0.128306     -0.870015
O      11.79398      9.76938      2.69750        -0.549267     -0.189584     -0.145709
O      11.69178      9.67522     15.97780         0.312913      0.197820     -0.258258
O      11.56704      9.89237      7.31787         1.899151     -1.540766     -0.839098
O      11.70476      9.71803     11.64496         0.184223      0.255357     -0.512844
O       1.88677      3.82586      2.80902         0.214035      0.196520      0.149371
O       1.91980      3.93643     16.03809         0.586777     -1.314466     -0.479332
O       1.90933     15.47716      2.69928         0.892460      0.419932      0.015368
O       1.93425     15.51579     16.05270        -0.383192      0.468363     -0.489163
O      13.81670      3.76385      2.87068        -0.958607      0.915816     -0.023972
O      13.65460      3.88717     15.87637         0.171599     -0.447349      0.207508
O      13.48743     15.48466      2.78287         0.268211      0.333359     -0.328676
O      13.78477      0.00627     15.87798        -0.515058     -0.487976     -0.322716
O       1.83797      3.85988      7.14613        -0.014675      0.638281     -0.292765
O       1.75558     15.52713      7.18545         0.426245      0.838244     -0.101942
O      13.58703      3.83179      6.92712        -0.195877      0.891029      0.213193
O      13.60834     15.55861      6.96499         0.102645     -0.101071      0.747534
O       2.04949      3.90265     11.57913        -0.247928     -0.262489     -0.198877
O       2.08720      0.00309     11.48069        -0.875296     -0.382805      0.191160
O      13.64046      3.95567     11.49752         0.254317     -0.444711     -0.189184
O      13.64952      0.04524     11.52953         0.110703     -0.255154      0.484055
O       1.88432      7.74223      2.75264         0.032508      0.013662     -0.035342
O       1.93622      7.69413     15.87815         0.068362      0.732167      0.097701
O      13.68674      7.75227      2.66884        -0.061547     -0.137881     -0.205860
O      13.65677      7.72258     15.95631         0.224692      0.962216     -0.193205
O       1.98606      7.87504      7.12429        -0.252570     -1.189206      0.620164
O      13.56684      7.73356      7.06207        -0.070629      1.710008      0.268822
O       1.98666      7.86598     11.55430        -0.300840     -1.232326      0.106825
O      13.66965      7.72393     11.55263         0.187975      0.725813     -0.231266
O       1.88482     11.61336      2.74200         0.373463      0.597810     -0.281466
O       1.95580     11.63853     15.88335         0.039338      0.054585     -0.015542
O      13.68723     11.67749      2.68292        -0.258690      0.071534      0.018566
O      13.57800     11.65638     15.94043        -0.124957      0.311270     -0.426916
O       1.91325     11.76355      7.21006         0.166620     -1.072038      0.644112
O      13.62041     11.67780      7.14364        -0.110236     -0.468053      0.519562
O       1.87702     11.67744     11.58334         0.589992      0.394911     -0.407266
O      13.64226     11.72384     11.48268        -0.175390     -0.504343     -0.003155
O       5.92549      3.88792      2.82398        -0.190706      0.084513     -0.476204
O       5.91632      3.91401     16.02243        -0.457677     -0.815524     -0.209480
O       5.83800     15.55378      2.69395        -0.155617     -0.382293     -0.255241
O       5.80473     15.54280     16.14706        -0.055011     -0.142744     -0.824278
O       5.86673      3.90187      7.10924        -0.005617     -0.397034      0.359567
O       5.91060      0.01434      7.18670        -0.501899      0.132921      0.222639
O       5.85183      3.82806     11.65682         0.294421      0.706136     -0.438432
O       5.83615     15.54916     11.53045        -0.053428      0.125555     -0.250143
O       5.75794      7.76134      2.90866         0.567674      0.435667     -0.564144
O       5.93296      7.72168     15.80765        -0.908160      0.026541      0.202443
O       5.69494      7.69956      7.20922         0.616051      0.678861     -0.000475
O       5.90338      7.85901     11.72834        -0.341813     -0.888714     -1.137745
O       5.72618     11.55805      2.72180         0.324039      0.155157     -0.003052
O       5.91001     11.62805     15.94493        -0.170236     -0.285696     -0.254748
O       5.76907     11.81154      7.23632         0.009830     -0.400715      0.076726
O       6.04421     11.69658     11.58216        -0.447817     -0.074758     -0.629498
O       9.58179      3.86617      2.65694         0.703935      0.425431      0.236432
O       9.81212      3.88476     16.09829        -0.402709      0.266104     -0.357877
O       9.83002     15.49223      2.70120        -0.539415      0.384991      0.055508
O       9.85059      0.02075     15.99140        -0.900852     -0.874310     -0.441541
O       9.72943      3.87327      7.00922         0.287683      0.377588      0.657128
O       9.62222     15.55033      7.00868         0.163023      0.031567      0.578243
O       9.66621      3.91408     11.55063         0.246835     -0.564531     -0.762611
O       9.81438      0.11513     11.59845        -0.420973     -0.396666     -0.217320
O       9.82078      7.87424      2.73431        -0.081190     -0.964946      0.226323
O       9.85474      7.78675     15.92709         0.118243     -1.085994     -0.080548
O       9.74522      7.79593      7.05887         0.029984      0.215877      0.303010
O       9.85202      7.73797     11.49673         0.127635      0.592551     -0.214546
O       9.76490     11.65969      2.66792        -0.054992     -0.717961     -0.022748
O       9.75388     11.62839     15.87880        -0.126362      0.528286     -0.105843
O       9.78675     11.66104      7.22169        -1.107307      0.716009      0.221475
O       9.77559     11.74837     11.43802        -0.050709     -0.595893      0.018543
