  # total energy = -7872.90485936 
CRSYTAL
PRIMVEC
    15.2000000000000000    0.0000000000000000    0.0000000000000000
     0.0000000000000000   15.2000000000000000    0.0000000000000000
     0.0000000000000000    0.0000000000000000    17.000000000000000
PRESSURE
8.46589 7.99668 -1.77467 0.239374 -0.053315 0.086885
PRIMCOORD
320 1
Pb       3.61415      3.85545      4.33971         0.282066     -0.248985     -0.424235
Pb       3.98716      3.91210     16.98302        -0.105745      0.017622      0.558294
Pb       3.63307      0.22718      4.33220        -0.404970     -0.651711     -0.021409
Pb       3.87143     15.16194     16.91597        -0.331243     -0.367706      0.575884
Pb       0.09781      3.88675      4.21147        -0.788497     -0.286848     -0.073213
Pb       0.22957      3.96373     16.93092        -1.420732     -1.319754      0.298152
Pb      15.13501      0.24755      4.54688         0.693892     -0.437415     -1.138992
Pb       0.07553     15.07375     16.96394        -0.389040      0.054018     -0.059246
Pb       3.96327      3.89277      8.34287        -0.688243     -0.727425      0.545413
Pb       3.84951     15.00372      8.74340        -0.057288      0.105826     -0.587907
Pb       0.17128      3.58569      8.69193        -0.206868      0.967046     -0.042607
Pb      14.86960     15.14736      8.47488         0.997071     -0.114719      0.915344
Pb       3.85908      3.58083     12.52151        -0.635364      1.048490      1.100004
Pb       3.81546      0.07945     12.88191         0.186955     -0.485819     -0.364914
Pb      15.13418      3.89702     12.68123         0.089739     -0.951529      0.090340
Pb       0.09129     15.19395     12.90573        -0.606213      0.189974     -0.584049
Pb       3.70642      7.65088      4.36351        -0.242316     -0.100483     -0.610720
Pb       3.70679      7.64320     16.95091         1.110634     -0.166275      0.652901
Pb      15.05738      7.82233      4.38951         0.660455     -0.420831     -0.745446
Pb      15.05683      7.43223     16.86336         0.525960      1.075889     -0.005024
Pb       3.86949      7.58220      8.31476        -0.395284      0.060156      0.508269
Pb      15.03407      7.51459      8.48482         0.049585     -0.008543      0.626591
Pb       3.63885      7.44730     12.67326         0.857796      0.318900     -0.023766
Pb       0.03117      7.43852     12.82278        -0.689656     -0.069943     -0.278398
Pb       3.51965     11.46441      4.37217        -0.030369     -0.302714     -0.093604
Pb       4.08179     11.43923      0.25445        -0.835805     -0.201857     -0.725387
Pb      15.17574     11.47646      4.21100        -0.433382     -0.376954      0.064905
Pb       0.13559     11.33192     16.83623         0.035010      0.254867      0.371469
Pb       3.63109     11.37870      8.57427         0.813753      0.446742      0.138936
Pb      15.12622     11.35854      8.63442        -0.442418     -0.008476     -0.283160
Pb       3.71009     11.26016     12.67486         0.143045      0.197958      0.222848
Pb      15.10286     10.97556     13.03534         1.041686      1.330082     -0.970112
Pb       7.55515      3.84308      4.29151        -0.022315     -0.302214     -0.008709
Pb       7.61176      3.79511      0.14604        -0.324848     -0.150671     -0.313595
Pb       7.55245     15.07900      4.24295         0.428087      0.498423     -0.158944
Pb       7.69841     15.07771     16.96095         0.025569      0.229284      0.080262
Pb       7.70558      3.55879      8.42698        -0.124505      0.667647     -0.075458
Pb       7.66406      0.04696      8.55746        -0.356181     -0.085625     -0.253601
Pb       7.73281      3.72831     12.78698        -0.887047      0.423716     -0.060322
Pb       7.58558     15.09346     12.87441        -0.114684      0.006571     -0.624980
Pb       7.74126      7.45137      4.03362        -0.296979      0.618029      1.094619
Pb       7.70837      7.72279      0.16318        -1.025168     -0.338148     -0.869471
Pb       7.53557      7.63316      8.25094         0.333293      0.188701      1.238844
Pb       7.46263      7.65058     12.63019         0.167093     -0.102836      0.249061
Pb       7.45205     11.36540      4.31297         0.944393     -0.345889      0.204086
Pb       7.51593     11.48759      0.00550         0.065604     -0.418905     -0.286769
Pb       7.62275     11.50907      8.67722        -0.483586     -0.210812     -0.813591
Pb       7.64009     11.35355     12.72262        -0.606341      0.191004     -0.165480
Pb      11.34619      4.06003      4.05980         0.739753     -1.533100      1.061645
Pb      11.28791      3.60110     16.94921         0.713328      0.073653      0.395552
Pb      11.51531     15.14661      4.12559        -0.666345     -0.031364      0.099857
Pb      11.42693      0.00090     16.98214        -0.088878     -0.094621     -0.059805
Pb      11.47402      3.79273      8.46498        -0.455311     -0.183055      0.366341
Pb      11.34207      0.03652      8.46195        -0.260116      0.079730      0.403334
Pb      11.25332      3.58889     12.78307         1.145399      0.758615     -0.008520
Pb      11.38575      0.00988     12.63077         0.254472      0.106951      0.758832
Pb      11.50100      7.46709      4.07577        -0.451509      1.347561      0.820285
Pb      11.42234      7.58621     16.93333        -0.156297      0.008916     -0.261634
Pb      11.29371      7.50851      8.72505         0.304277     -0.014965     -0.531202
Pb      11.39304      7.66036     12.97779        -0.236649     -0.866353     -0.576687
Pb      11.36922     11.29465      4.18140        -0.321880      0.001004     -0.041168
Pb      11.49610     11.44431     16.68303        -0.393867     -0.088118      1.185097
Pb      11.32883     11.39436      8.53158        -0.145756      0.415059     -0.451687
Pb      11.24034     11.13538     12.44453         0.143772      1.304608      1.732880
Ti       1.88933      1.89409      2.03977        -0.485947     -0.256236      1.223834
Ti       1.93655      1.95319     14.98843        -0.376139     -1.019890     -1.404157
Ti       1.84247     13.33105      2.29716         0.003501      0.371630     -1.993557
Ti       1.85362     13.29423     14.91258         1.073427     -0.927387     -0.975572
Ti      13.35000      1.85810      2.16558        -0.058741      1.194544     -1.327233
Ti      13.37671      1.87117     15.01216        -0.873436     -0.436462     -1.254844
Ti      13.30119     13.25224      2.16757        -0.113398      0.797200     -0.685448
Ti      13.32615     13.25878     14.83814        -0.137661      0.718323     -0.229266
Ti       1.85677      1.87722      6.66735         1.072243      0.144631     -0.954932
Ti       1.72209     13.30012      6.69280         2.454113      0.525749     -1.469547
Ti      13.23059      1.99280      6.42365        -0.706541      0.321555      0.012962
Ti      13.16466     13.28402      6.58250        -0.543551     -0.826564     -1.238335
Ti       1.89359      1.77347     10.72628        -0.325356      1.577764     -0.613312
Ti       1.79154     13.25243     10.86681        -0.316515     -0.430327     -0.620624
Ti      13.31005      1.87336     10.66592        -0.275980      0.382506     -0.239225
Ti      13.23094     13.19401     10.85013         0.832187      1.085391     -1.020451
Ti       1.81432      5.72669      2.26165         1.458879      1.326599     -0.776966
Ti       1.93506      5.64293     14.95482         0.040018      1.083504     -1.003678
Ti      13.36299      5.74400      2.13557         0.330943     -0.716526      0.028381
Ti      13.25647      5.60544     14.94473        -0.719323      0.422022     -1.576519
Ti       1.70890      5.72549      6.51484         1.480008     -0.314014      0.065533
Ti      13.20089      5.76523      6.53354         0.208828     -1.136860     -1.193026
Ti       1.88731      5.69307     10.68592        -0.802257     -1.236989     -1.122558
Ti      13.15218      5.68477     10.82321         0.835481     -0.286927     -0.534166
Ti       1.81027      9.47555      2.12711         0.348904     -0.708750      0.240755
Ti       1.99808      9.41778     14.99569        -1.455948      1.295293     -0.248310
Ti      13.26926      9.51627      2.03367        -0.088588     -0.042883     -0.867633
Ti      13.30927      9.49080     14.90291         0.226693     -1.192528      0.479875
Ti       1.77984      9.48269      6.60431        -0.681990      0.546777     -1.500219
Ti      13.16497      9.49915      6.52957         0.939650      0.244710     -0.437928
Ti       1.81572      9.43300     10.65724        -0.044353      0.109007     -0.347303
Ti      13.22455      9.43939     10.75192         0.624780     -1.169637     -1.119077
Ti       5.64750      1.85994      2.29537         0.115442      0.628586     -1.532639
Ti       5.70844      1.87039     15.06648         0.101990      0.807612     -1.229253
Ti       5.64390     13.27362      2.41106        -0.665094      1.438894     -1.269257
Ti       5.63314     13.29280     14.96907         0.225478     -0.871302     -1.029329
Ti       5.67304      1.81825      6.48109        -0.049843      0.109395     -0.100955
Ti       5.61266     13.27681      6.48512        -0.368371      0.547478     -0.585519
Ti       5.70997      1.88787     10.70959         0.795109     -1.304953     -1.082505
Ti       5.57702     13.25480     10.85287         0.636408     -0.402470     -0.296782
Ti       5.69040      5.66139      2.37042        -0.991680      0.416517     -2.022230
Ti       5.71681      5.69892     14.89240         0.242578      0.359289      0.226632
Ti       5.70432      5.70790      6.48975         1.117467     -0.131445     -1.811584
Ti       5.76493      5.65284     10.63616        -0.544167      0.391584     -0.203692
Ti       5.59155      9.47443      2.43018         0.323408     -0.444291     -1.672933
Ti       5.63948      9.44831     14.90357         0.309618      0.237240     -0.559063
Ti       5.59820      9.56926      6.41564         1.733983      0.326409     -0.864335
Ti       5.59331      9.46249     10.58473         0.568690      0.463027      0.940821
Ti       9.49209      1.93218      2.34069         0.181865     -1.246633     -1.319777
Ti       9.47472      1.89181     14.98918        -0.041304     -1.588474     -0.393464
Ti       9.48064     13.21991      2.21873         1.348876      0.453928     -1.212602
Ti       9.55283     13.24159     14.91118        -0.469756      0.826541     -0.515768
Ti       9.52342      1.90009      6.34792        -0.140931      0.225148     -0.659655
Ti       9.40512     13.32940      6.49442         0.410511     -0.817236     -0.812251
Ti       9.49748      1.92087     10.76874        -0.825028     -0.229796     -1.025401
Ti       9.47128     13.37148     10.71469        -0.664793     -0.226863     -0.370172
Ti       9.54714      5.67354      2.09483        -0.560775      0.436774     -1.421115
Ti       9.47413      5.61163     15.01157         0.257534      1.032498     -0.739322
Ti       9.47612      5.68966      6.53409         0.409000     -0.536856     -1.162319
Ti       9.41083      5.66134     10.62652         0.630659      1.303392     -0.702637
Ti       9.43083      9.47462      2.14596         1.065819      1.018279     -0.479224
Ti       9.43915      9.49951     14.96680        -0.594516     -0.753191     -0.398595
Ti       9.47804      9.43138      6.50378        -0.789395      1.284116     -2.036379
Ti       9.36149      9.47268     10.62699        -0.667097     -0.905793     -0.093719
O       1.81355      1.93533      0.27412         0.050672      0.212521     -0.645520
O       2.04731      1.84367     13.01535        -0.648791     -0.040014      1.622650
O       1.82368     13.30457      0.41264        -0.220603      0.068060      1.293314
O       1.92927     13.24556     13.02278        -0.625680      0.615932      1.234215
O      13.26937      1.78587      0.29988         0.276915      0.176111      0.419731
O      13.15870      1.90859     13.18217         0.308421     -0.292875      0.469592
O      13.33435     13.45786      0.36253        -0.184253     -0.731468      0.713744
O      13.30774     13.14218     13.06199         0.045865      0.466506     -0.027149
O       1.97487      1.98831      4.72045        -0.313072     -0.103702      1.108262
O       1.94324     13.44431      4.77938        -0.541125     -1.138562      0.436284
O      13.14702      1.97013      4.60804         0.603602     -0.367298      0.534918
O      13.25837     13.21932      4.74015        -0.196632      0.508651      0.643002
O       1.84825      1.81076      8.86681        -0.300192      0.181875     -0.086310
O       1.81321     13.32052      8.93078         0.148099     -0.357382      0.528400
O      13.27400      1.87126      8.77348         0.242842      0.248832      1.368237
O      13.22705     13.23731      8.91130         0.234105      0.220737      1.132030
O       1.73516      5.62601      0.35218         0.649821      0.564614      1.039023
O       1.83577      5.64079     13.13865         0.321239      0.446623      0.065723
O      13.19934      5.89238      0.34947         0.833491     -0.615660     -0.261291
O      13.32092      5.79406     13.04513        -0.516802     -0.494324      1.466015
O       1.79196      5.77917      4.69639         0.348553     -0.755667      0.346791
O      13.29090      5.78673      4.65164        -0.246242     -0.138895      0.897137
O       1.77014      5.69808      8.85529         0.327542      0.369536      0.770433
O      13.11406      5.75535      8.92805         0.526925      0.030192      0.314229
O       1.89223      9.44022      0.31152        -0.223348      0.207405      0.804070
O       1.96433      9.45638     13.17934        -0.193024     -0.195322     -0.732440
O      13.28330      9.50091      0.16344         0.157519     -0.072975      1.644285
O      13.28868      9.45109     13.02782        -0.537217     -0.083104      0.388955
O       1.86719      9.58924      4.73805        -0.094336      0.071171      0.549853
O      13.42173      9.46759      4.71882        -1.170613      0.399112      0.231814
O       1.83153      9.48330      8.81721        -0.099234     -0.389637      0.955411
O      13.26541      9.32414      8.89265        -0.256654      0.542634      0.764393
O       5.63219      1.80886      0.39578         0.170268      0.584938      1.035648
O       5.64568      1.93240     13.17660         0.003907     -0.454247      0.813414
O       5.71384     13.28269      0.36709         0.128086     -0.012379      1.135355
O       5.62285     13.32137     13.10301         0.252500     -0.070997      1.205587
O       5.61448      1.90962      4.68573         0.070922     -0.311647     -0.397977
O       5.74446     13.31551      4.56927        -0.206916      0.010713      0.777764
O       5.76952      1.96313      8.85990        -0.267387     -0.428432      0.469306
O       5.59018     13.26129      9.03792        -0.063140      0.216449     -0.615194
O       5.71177      5.66743      0.44381        -0.328331     -0.442405      1.052673
O       5.68223      5.63732     13.12286        -0.142542      0.183520      0.007268
O       5.82321      5.92765      4.57907        -0.239486     -1.145000      1.057332
O       5.75852      5.67546      8.75772        -0.068118      0.040179      1.172065
O       5.54096      9.54597      0.47395         0.424334      0.254278      0.632855
O       5.64670      9.39692     13.07975        -0.234856      0.295711      1.012268
O       5.63699      9.52906      4.50466         0.359395      0.392541      1.380201
O       5.66834      9.47457      8.81059        -0.250591      0.001587     -0.188930
O       9.53956      2.01381      0.39368        -0.372664     -0.359947      0.751461
O       9.38245      1.96214     13.09150         0.377589     -0.183147      0.775095
O       9.48261     13.33034      0.34083        -0.038990     -0.483531      0.842128
O       9.44077     13.21465     13.12230        -0.015245      0.268126     -0.400999
O       9.48559      1.98235      4.51412         0.325312     -0.109569      0.406929
O       9.45538     13.26309      4.64312        -0.044180      0.368190      0.952827
O       9.47276      1.83652      8.95791        -0.418485      0.301877      0.212219
O       9.51155     13.34290      8.86037        -0.662889     -0.130355      1.290964
O       9.46404      5.81677      0.25472         0.246991     -0.891541      1.033206
O       9.59123      5.49458     13.19849        -0.342070      0.602953      0.254512
O       9.51489      5.67816      4.63101         0.104118     -0.010296      0.122893
O       9.41897      5.63411      8.79287         0.194435      0.160441      0.698664
O       9.38494      9.46958      0.28000         0.560686      0.330302      0.710568
O       9.47338      9.45412     13.07898        -0.254539      0.006650      1.069668
O       9.51418      9.51157      4.60615        -0.219395     -0.184193      1.276787
O       9.36313      9.62578      8.84474         0.202517     -0.505022     -0.314822
O       3.68289      2.05195      2.42804         1.358487     -0.277621      0.633247
O       3.73134      1.76693     15.31082         0.937607      0.682656     -0.006247
O       3.70249     13.33129      2.43803         1.756670     -0.416408      0.569740
O       3.75662     13.27205     15.32328         0.475131      0.381802     -0.167633
O       0.09205      1.95964      2.55020        -1.235530     -0.245164      0.400820
O       0.00803      1.90515     15.10747         0.631691      0.027194      0.282815
O      15.16249     13.35430      2.56487        -0.132520     -0.175579      0.334102
O       0.00323     13.29362     15.32109         0.230398     -0.129526     -0.281800
O       3.76737      1.89567      6.81744         0.071764     -0.221849      0.121276
O       3.72500     13.31937      6.90033         0.425226      0.426965      0.172452
O      15.11564      1.89722      6.60867        -0.263083      0.281557      0.403917
O      15.13736     13.21586      6.86739        -1.060661     -0.310173      0.075630
O       3.79136      1.83409     10.98091        -0.175724     -0.310841     -0.105552
O       3.66563     13.30700     11.09556         0.085805      0.013184     -0.323636
O      15.15869      1.98731     10.99548        -0.084910     -0.206942      0.008918
O      15.08982     13.20642     11.09794         0.537664      0.245934     -0.215540
O       3.81037      5.79986      2.60298        -0.288980     -0.627172      0.080619
O       3.73378      5.72460     15.25792         1.386722     -0.230398      0.261738
O       0.04260      5.88429      2.64366        -1.194520     -0.441420     -0.457513
O       0.01330      5.68537     15.20742        -0.857610      0.332890      0.452652
O       3.83219      5.79224      6.74082        -0.148510     -0.393067     -0.068219
O      15.16428      5.60383      6.83929        -1.479353      0.346816      0.053875
O       3.77126      5.74784     10.92634         0.489240      0.004230      0.014458
O      15.14857      5.55564     11.15464         0.059586      0.463224     -0.833417
O       3.79839      9.55854      2.60898        -1.459190     -0.024638     -0.076067
O       3.74458      9.44978     15.32701         2.007411      0.508951      0.131314
O      15.12982      9.49545      2.55615         0.767695      0.173288     -0.262083
O       0.02111      9.47624     15.13491        -0.576641     -0.166061      0.177956
O       3.79836      9.40889      6.68370        -0.665877     -0.162482      0.553168
O      15.06584      9.68452      6.73117         1.390425     -0.655951      0.815787
O       3.74170      9.43129     10.93926        -1.050969     -0.599898      0.066367
O      15.05547      9.56565     11.02880         1.335167      0.151438     -0.131600
O       7.60328      1.99661      2.55925        -0.489964     -0.145776     -0.098799
O       7.57049      1.85477     15.34340         0.264324      0.109930     -0.067486
O       7.70479     13.26464      2.54125        -2.388268      0.416022      0.284582
O       7.63578     13.35990     15.19188        -1.100794     -0.215927      0.396193
O       7.63750      1.87251      6.69822        -0.509633      0.212846      0.317117
O       7.49583     13.18993      6.81375         0.880068      0.510728      0.112937
O       7.54925      1.86652     10.98264         0.352749      0.137817      0.454646
O       7.56652     13.17964     11.02503         0.309337      0.385780      0.233278
O       7.63755      5.64586      2.36387         0.264269      0.156953      0.717344
O       7.65233      5.71030     15.20165        -1.601481     -0.197890      0.186434
O       7.67569      5.56363      6.65101        -2.449521      0.366186      0.430936
O       7.57599      5.59952     11.11824        -1.153269      0.129197     -0.218912
O       7.61683      9.55476      2.37665        -0.131280     -0.119911      0.512284
O       7.50424      9.52272     15.27078         1.286131     -0.191045     -0.069548
O       7.49831      9.59914      6.76350         0.932779      0.102972     -0.099211
O       7.45678      9.56346     11.03817         0.946426      0.106836     -0.033024
O      11.50824      1.99337      2.38170        -1.327520      0.325929      0.566200
O      11.33680      1.86229     15.28601         0.486026      0.095524      0.079648
O      11.38378     13.32005      2.52570         0.511833     -0.032390      0.278151
O      11.46770     13.36073     15.18162        -0.289381     -0.623219      0.384714
O      11.32032      1.88912      6.85416         0.928140     -0.338931     -0.234631
O      11.26602     13.40596      6.99988         0.877844     -0.608935     -0.938414
O      11.34012      1.86911     10.96144         0.184592      0.182733      0.456432
O      11.32175     13.38203     11.12620         0.073035     -0.403726     -0.315108
O      11.45037      5.74845      2.52185        -0.010974     -0.010992     -0.605682
O      11.39798      5.68912     15.25796         0.072419     -0.070382      0.168405
O      11.33668      5.93460      6.79216         0.646002     -0.823021      0.154395
O      11.31764      5.76993     10.95141        -0.935334      0.355775      0.292972
O      11.43090      9.47489      2.46755        -0.071489     -0.015384     -0.015617
O      11.48787      9.62399     15.16530        -1.924753     -0.371411     -0.159336
O      11.35849      9.27512      6.73554        -0.808080      0.576073      0.528562
O      11.23588      9.28728     10.99569         1.066277      0.230820     -0.033485
O       1.85202      3.90887      2.63937         0.105477     -0.877318     -0.309004
O       1.84829      3.81512     15.21101         0.371332     -0.796270      0.399592
O       1.90865      0.03473      2.63094        -0.104930      0.361952     -0.441637
O       1.91183     15.17612     15.26760        -0.570549      0.281766     -0.281898
O      13.45682      3.88402      2.32982        -0.170213      0.024090      0.459382
O      13.23397      3.79613     15.14801         0.244921     -0.233001      0.577655
O      13.18651      0.05036      2.54392         0.896323     -0.947453      0.215802
O      13.47118     15.12221     15.16598        -0.618468      0.694498     -0.021446
O       1.85390      3.82643      6.96164         0.385966     -0.317073     -0.515296
O       1.68593      0.01919      6.74040         0.226942     -0.335192      0.398098
O      13.09995      3.82109      6.83130         0.429708      0.102902     -0.465370
O      13.21725     15.14893      6.89084         0.260339      1.083136     -0.942145
O       1.87245      3.77556     10.92164         0.209288      0.047306      0.088436
O       1.75487      0.00329     10.99691        -0.008188     -1.408964      0.413670
O      13.14146      3.76461     11.11911         0.107120     -0.083058     -0.341167
O      13.19983      0.06512     11.10580         0.611955     -0.926084     -0.250898
O       1.95014      7.62104      2.65927         0.005000      0.683712     -0.475919
O       1.98025      7.61972     15.34330        -0.963185     -1.747748     -0.326820
O      13.34668      7.66142      2.48467        -0.285436     -0.177965      0.103334
O      13.22207      7.57079     15.22509         0.226967      0.382073     -0.139176
O       1.84676      7.63797      6.72688        -0.269476     -1.106778      0.617581
O      13.30811      7.55651      6.84182         0.762961      1.008531     -0.068934
O       1.58434      7.55540     11.08922         1.211636      0.517060     -0.343504
O      13.37173      7.54942     11.07008        -0.324593      0.639903     -0.050509
O       1.92517     11.30542      2.50605        -0.476453      1.568011      0.495434
O       1.80712     11.41041     15.16433         0.133917     -0.213919      0.246459
O      13.31942     11.40075      2.49429        -0.125048     -0.131043     -0.009269
O      13.38318     11.36381     15.24270         0.211112      0.599096     -0.075017
O       2.00820     11.30988      6.97191        -0.732527      1.672367     -0.571382
O      13.15309     11.41404      6.88498        -0.529102     -0.659704      0.184909
O       1.90201     11.26732     11.05949        -0.271746      0.735042     -0.350771
O      13.12333     11.37460     10.97772        -0.357915     -0.969641     -0.278556
O       5.69038      3.74134      2.61938        -0.118591      1.164246      0.213216
O       5.58013      3.77231     15.33616         0.501261      0.482381     -0.005001
O       5.60722      0.04367      2.62936         0.486753     -0.584042      0.146578
O       5.69065      0.02814     15.28711        -0.211666     -1.298009     -0.006877
O       5.71622      3.75187      6.68858        -0.271734      1.206736      0.129815
O       5.75552     15.17734      6.89101        -0.309247     -0.384933     -0.105169
O       5.65912      3.69679     11.04672        -0.025028      2.159492     -0.444749
O       5.60635     15.11627     11.07543         0.297059      1.354791      0.045348
O       5.72085      7.65372      2.52989         0.417994     -1.002684      0.069430
O       5.66098      7.59426     15.23676        -0.155885     -0.682801      0.134240
O       5.82975      7.65937      6.76598        -0.948462     -1.067666     -0.323922
O       5.67596      7.59198     11.08990         0.152042     -1.325957     -0.734069
O       5.71048     11.50713      2.56742        -0.050393     -1.181036     -0.041807
O       5.64349     11.38009     15.23440         0.135398      0.556981      0.313785
O       5.58941     11.45186      6.80089        -0.295119     -0.762631     -0.211275
O       5.59019     11.36747     11.00729        -0.282610     -0.698291      0.291903
O       9.56744      3.86400      2.45473        -0.027176     -0.187510      0.122569
O       9.44708      3.71424     15.33347         0.083814      0.936530      0.021819
O       9.48250      0.05839      2.43147         0.241639     -0.496375      0.502019
O       9.54758     15.14031     15.23724        -0.471861      0.996280      0.136028
O       9.51784      3.76407      6.83741         0.431952     -0.127292     -0.264716
O       9.46960      0.06387      6.89646        -0.520813     -0.893369     -0.613587
O       9.43063      3.86422     11.00997         0.173338     -1.684211      0.240481
O       9.39042      0.04216     11.10714         0.004562     -0.900966      0.061624
O       9.53181      7.53414      2.37807        -0.185754      0.978345      0.354187
O       9.62031      7.64079     15.32375        -0.330486      0.054328     -0.675943
O       9.34737      7.56679      6.79338        -0.130017      0.823565      0.020073
O       9.22395      7.59989     10.83952         0.260198     -0.444466      0.251111
O       9.59684     11.34184      2.54394        -0.253230      0.304518     -0.271755
O       9.45530     11.39440     15.18314         0.349924     -0.546224      0.579078
O       9.54670     11.41018      6.81589         0.147591     -0.135993      0.015515
O       9.47570     11.39176     10.95287         0.056896      0.047637      0.008066
