  # total energy = -7880.67770145 
CRSYTAL
PRIMVEC
    15.3600000000000000    0.0000000000000000    0.0000000000000000
     0.0000000000000000   15.3600000000000000    0.0000000000000000
     0.0000000000000000    0.0000000000000000    17.440000000000000
PRESSURE
3.61662 3.3823 7.80058 -0.234572 -0.439049 0.017276
PRIMCOORD
320 1
Pb       3.80319      3.85050      4.37880        -0.071264     -0.253100     -0.058581
Pb       3.96370      3.81347     17.33658        -0.810845     -0.357078      0.425421
Pb       3.82062     15.34130      4.32381        -0.158619      0.006384      0.344000
Pb       3.90292      0.03129     17.39493        -0.277773     -0.216291      0.113493
Pb      15.31308      3.83037      4.39146         0.406746     -0.170050     -0.013512
Pb       0.08066      3.83664      0.02949        -0.282855     -0.015894     -0.227334
Pb       0.02144     15.31148      4.31330         0.069734      0.047769      0.280990
Pb      15.14911     15.32221     17.41761         0.636257     -0.167144      0.567321
Pb       3.78228      3.92408      8.55754         0.061621     -0.183554      0.489873
Pb       3.82312     15.32590      8.80274         0.135727      0.259170     -0.454300
Pb      15.10428      3.87813      8.59701         0.684277     -0.044799      0.956761
Pb      15.28704      0.13955      8.65784         0.407065     -0.303528      0.412897
Pb       3.88149      3.76825     12.94454        -0.137046      0.184469      0.624637
Pb       3.78417     15.23938     12.98178        -0.130448      0.518974     -0.083097
Pb      15.31474      3.71416     13.08647         0.562447      0.274298     -0.132987
Pb      15.35556      0.03652     12.91977         0.378292     -0.515135      0.476287
Pb       3.90563      7.70203      4.26365        -0.208198     -0.483504      0.117277
Pb       3.73666      7.66804      0.02462        -0.090750     -0.292975     -0.218264
Pb       0.15260      7.67694      4.29377        -0.541242     -0.082338      0.200860
Pb      15.34589      7.79449     17.32725        -0.274002     -0.749049      0.413085
Pb       3.94735      7.61091      8.68715        -0.497615      0.312193     -0.125611
Pb      15.33375      7.62624      8.66727         0.044176      0.427893     -0.108986
Pb       3.82992      7.65731     13.06384        -0.086402     -0.441209     -0.225641
Pb       0.05136      7.69499     13.06598        -0.272468     -0.275702      0.159354
Pb       3.68984     11.47301      4.30022         0.154713      0.261837      0.206696
Pb       3.97804     11.33573     17.31413        -0.737870      0.890841      0.567012
Pb       0.13128     11.62975      4.17178        -0.516993     -0.375368      0.745293
Pb      15.30237     11.45786     17.33381        -0.200681      0.419562     -0.014883
Pb       3.78763     11.59368      8.70333         0.250529     -0.447521     -0.067400
Pb       0.00129     11.38397      8.64363        -0.287174      0.254497      0.102955
Pb       3.95646     11.51837     12.98695        -0.778910     -0.257167      0.046675
Pb       0.08006     11.47969     13.11564        -0.154553      0.195747     -0.150256
Pb       7.67684      3.73024      4.38046         0.182686      0.199096     -0.187129
Pb       7.73353      3.91068     17.24883        -0.724118     -0.605867      1.513024
Pb       7.67107      0.06297      4.30180         0.095513     -0.968959      0.189299
Pb       7.45753     15.34826     17.31579         0.798591     -0.349089      0.871191
Pb       7.65677      3.81607      8.67069         0.110226      0.144971      0.430328
Pb       7.69303     15.27300      8.61465        -0.462262     -0.049884      0.128418
Pb       7.79894      3.93741     13.21333        -0.760200     -0.107626     -0.652651
Pb       7.72119      0.10253     13.01579        -0.784423     -0.384321     -0.002178
Pb       7.55754      7.57013      4.26215         0.327895      0.121994      0.521074
Pb       7.66081      7.63453     17.42159        -0.064350      0.318135     -0.437821
Pb       7.60194      7.82019      8.61300         0.408068     -0.560310      0.367936
Pb       7.63362      7.62574     12.99147         0.148442     -0.395119      0.053221
Pb       7.65527     11.42191      4.33120         0.318222      0.495429      0.177436
Pb       7.59674     11.62488     17.29617        -0.077369     -0.593394      0.940208
Pb       7.73420     11.47168      8.68134        -0.860429      0.441427      0.166740
Pb       7.85178     11.63711     13.06676        -0.794084     -0.462563     -0.282731
Pb      11.58442      3.75184      4.34814        -0.509064      0.394264     -0.018247
Pb      11.51815      3.83029      0.00783         0.033540     -0.354649     -0.125792
Pb      11.55453      0.03405      4.22478        -0.326169     -0.775646      0.930546
Pb      11.45022     15.32272     17.21015        -0.131073     -0.246728      1.220537
Pb      11.57937      4.01664      8.65348        -0.463111     -0.937634      0.395343
Pb      11.50158     15.27588      8.62352        -0.581556      0.783520      0.841878
Pb      11.52791      3.73507     13.19505        -0.034760     -0.128873      0.136498
Pb      11.41342     15.33354     13.00881         0.594386      0.128487      0.588490
Pb      11.57692      7.69587      4.21427        -0.234163     -0.329656      0.770244
Pb      11.42651      7.59203     17.43352         0.074773      0.534804     -0.227005
Pb      11.55536      7.66051      8.64281        -0.287884      0.478182      0.081363
Pb      11.43214      7.70692     12.98027        -0.238584     -0.080505      0.541509
Pb      11.56132     11.40479      4.37781        -0.401483      0.326528     -0.169298
Pb      11.40565     11.48763     17.35705         0.215336      0.263686      0.081836
Pb      11.48746     11.51116      8.80363         0.053179     -0.367123     -0.297711
Pb      11.48647     11.48064     12.94140        -0.102829     -0.122685      0.575967
Ti       2.00178      1.87474      2.34678        -0.454190      0.400424      2.558656
Ti       1.98730      1.86831     15.39958        -0.351664      0.026214      0.998660
Ti       1.92764     13.52142      2.18937        -0.597038     -1.032605      1.788577
Ti       1.87123     13.48698     15.51640        -0.096128     -1.302608     -1.641532
Ti      13.55223      1.91382      2.43799        -0.436048     -0.264050     -0.201173
Ti      13.55316      1.89587     15.49735        -1.574134      0.121049     -0.481049
Ti      13.36997     13.37539      2.37574         0.335526      0.111697      1.070720
Ti      13.44401     13.40827     15.34468        -1.087584     -0.040915      1.345501
Ti       1.90949      1.97654      6.79049         0.035642     -0.901936     -0.266052
Ti       1.80657     13.41674      6.82588         0.176308      0.350551      0.823139
Ti      13.40689      1.86844      6.74127        -0.433051      0.922354      0.109224
Ti      13.34036     13.44273      6.77133         0.724349     -0.569382      0.263131
Ti       1.96993      1.98875     10.97447        -0.772683     -0.987240      2.336999
Ti       1.83752     13.37340     11.03752         0.178814      0.724508      1.137392
Ti      13.40251      1.86154     11.17808        -0.052977      0.270318     -1.978221
Ti      13.37946     13.34840     11.13402         0.341865      0.194130      2.128434
Ti       1.88469      5.69516      2.38083        -0.231278     -0.010741      2.112310
Ti       1.82306      5.69814     15.38984         0.556385      0.165213      1.151200
Ti      13.40606      5.76699      2.34713         0.284135     -0.154759      1.971654
Ti      13.39939      5.72922     15.42427        -0.011562     -0.688903      1.499749
Ti       1.76994      5.74380      6.65890         1.398861      1.047639      1.174596
Ti      13.37067      5.84871      6.62463         0.308364     -0.234632      0.680974
Ti       1.86959      5.75161     11.03966         0.099273     -0.629451      2.461758
Ti      13.41496      5.63268     11.30542         0.640085      0.744271     -1.221957
Ti       1.90267      9.56611      2.33365         0.390162      0.134961      0.546095
Ti       1.86090      9.58963     15.47157        -0.309565      0.142895      1.558980
Ti      13.45966      9.54783      2.35646         0.040475      0.415659      0.695948
Ti      13.29002      9.53888     15.39636        -0.079298      0.533389      1.499082
Ti       1.96576      9.58319      6.68605        -1.368841     -0.467387      1.841062
Ti      13.43369      9.67768      6.63807        -0.416397     -0.214024      2.612108
Ti       1.89061      9.56454     11.04372         0.049716      0.058400      0.583490
Ti      13.37598      9.46467     11.15470         0.063958      0.707140      0.802343
Ti       5.78470      1.83286      2.41070        -0.303987     -0.067397      2.051259
Ti       5.77168      1.88938     15.34092        -0.358029     -0.479152     -1.775979
Ti       5.68336     13.29701      2.43560         0.868080      1.024308      1.666827
Ti       5.63965     13.36030     15.22854        -0.124444      0.298527      1.684132
Ti       5.74438      1.93765      6.72339        -0.526385     -0.258217      1.729009
Ti       5.57064     13.47704      6.61305         1.367480     -0.554560      2.288219
Ti       5.74015      1.89308     11.06055        -0.091909      0.159506      0.092521
Ti       5.69560     13.37349     11.02487         1.206343      0.908712      0.629305
Ti       5.72995      5.62737      2.25792        -0.074848     -0.096642      2.535777
Ti       5.61501      5.71690     15.47053         0.614026      0.242491      0.818767
Ti       5.76760      5.79976      6.75309        -0.514637     -0.059429      0.597523
Ti       5.71412      5.70631     11.03069         0.360081      0.102826      2.217917
Ti       5.80354      9.52346      2.33868        -0.484311      0.562609      3.484606
Ti       5.67047      9.47107     15.30846         0.901927      0.349193      2.419835
Ti       5.67164      9.63116      6.60440         0.372966      0.060325      1.859197
Ti       5.75786      9.58543     11.09659        -0.906109     -0.809280      0.200280
Ti       9.65738      1.91283      2.41443        -0.677509     -0.545415      1.004978
Ti       9.56881      1.84113     15.49566         0.432933      1.004454      0.335383
Ti       9.59251     13.31727      2.40988        -0.671670      0.855333      0.494427
Ti       9.45231     13.40872     15.40283         1.366286     -0.173523     -0.215646
Ti       9.58112      1.91956      6.71160         0.045816      0.227733      0.119053
Ti       9.52161     13.37451      6.66889        -0.370250      0.180872      0.985692
Ti       9.55980      1.94128     11.12361         0.011754     -0.426407      0.746148
Ti       9.54337     13.42165     11.09482        -0.637472      0.258753      0.637299
Ti       9.51159      5.77670      2.31659         1.101050     -1.367114      0.548842
Ti       9.55038      5.73856     15.48940        -0.002889      0.589838     -0.392415
Ti       9.55426      5.73342      6.66053        -0.124196      0.162494      2.731769
Ti       9.67128      5.64557     11.11160        -1.335005      0.725840     -0.375694
Ti       9.57758      9.51347      2.34898         0.518971      0.913344      0.046076
Ti       9.46072      9.59239     15.40582         0.223732     -0.941042      0.576242
Ti       9.59849      9.59729      6.73195         0.001377     -0.087846      0.658102
Ti       9.46995      9.52346     10.99666         1.067879      0.043394      0.322151
O       2.05073      1.90058      0.67346        -0.079688      0.026483     -2.723818
O       1.98622      1.85861     13.70200        -0.209710     -0.240801     -1.179617
O       1.82732     13.45145      0.51617         0.289909     -0.038526     -2.494999
O       1.80369     13.45865     13.72460         0.058317      0.055550     -0.124567
O      13.55169      1.89940      0.70217        -0.277470      0.097695     -0.823489
O      13.45371      1.86305     13.74917         0.076790      0.279592     -1.016334
O      13.34349     13.37484      0.69223         0.034797      0.089789     -2.341433
O      13.45809     13.45889     13.65692         0.040224     -0.103521     -1.528369
O       1.95053      1.90955      5.07670        -0.154503      0.138506     -1.421764
O       1.93393     13.29968      5.13463        -0.160757      0.200686     -2.170281
O      13.53951      1.85654      5.02440        -0.203824     -0.075995     -1.243907
O      13.48034     13.39305      5.08357        -0.219409      0.100034     -1.971927
O       1.87606      1.90897      9.30530         0.123755      0.048320     -2.795466
O       1.95898     13.29879      9.33171        -0.196976      0.125960     -1.492707
O      13.37621      1.94971      9.37678         0.194881     -0.145858      0.011257
O      13.21747     13.32121      9.47482         0.049711      0.408935     -2.782573
O       1.78745      5.69411      0.71061         0.274661     -0.356524     -2.701288
O       1.88212      5.79138     13.71392        -0.106815     -0.136540     -1.980981
O      13.41888      5.68716      0.66250         0.090959      0.045078     -2.371777
O      13.49171      5.54635     13.73797        -0.301782      0.312181     -1.556463
O       1.79792      5.71903      4.95703         0.113603      0.017768     -2.044284
O      13.36364      5.84332      4.93596         0.188224     -0.217586     -1.543520
O       1.77299      5.85628      9.37139         0.006536      0.017286     -2.442064
O      13.35400      5.63268      9.52689         0.065962      0.135690     -0.733271
O       1.91837      9.41631      0.62802        -0.260749      0.510790     -2.446932
O       1.77456      9.51860     13.82214         0.225691     -0.020346     -3.712496
O      13.38926      9.46132      0.64418         0.166286      0.199369     -1.562257
O      13.25837      9.51046     13.71103        -0.021183      0.044460     -1.769433
O       1.85761      9.68837      5.01179         0.300950     -0.177306     -3.290649
O      13.31990      9.64169      4.97887         0.127494     -0.015577     -2.911474
O       1.81965      9.61944      9.33271         0.034318     -0.291979     -0.998787
O      13.30472      9.51069      9.46561         0.187757      0.074731     -2.335355
O       5.74782      1.65308      0.75223        -0.118527      0.227227     -3.500487
O       5.63386      1.86785     13.58172         0.411224      0.007837      0.238408
O       5.81662     13.28890      0.75201        -0.190898      0.001421     -2.586688
O       5.70208     13.36705     13.53475         0.084994     -0.215227     -1.539931
O       5.73186      1.84800      5.01592         0.021178      0.287800     -1.484351
O       5.55699     13.46368      4.92560        -0.040566      0.089433     -1.878214
O       5.65625      2.03548      9.32003         0.175969     -0.363967     -0.534745
O       5.67987     13.39264      9.29788        -0.163574     -0.001106     -0.720485
O       5.66611      5.69686      0.58387         0.053756     -0.027896     -2.662017
O       5.56209      5.70156     13.79820         0.321639      0.148052     -2.156915
O       5.77335      5.91982      5.04784         0.149449     -0.294854     -1.964756
O       5.67366      5.76430      9.34540        -0.054929      0.197179     -2.669030
O       5.66156      9.52227      0.70528         0.033852      0.353324     -4.033211
O       5.67042      9.49539     13.64106         0.027046      0.109267     -2.581539
O       5.71365      9.40076      4.91670         0.012003     -0.125123     -1.955570
O       5.68668      9.50747      9.38256        -0.003652     -0.090677     -1.536369
O       9.60446      1.68838      0.74331        -0.019796      0.229144     -2.299105
O       9.54248      1.96496     13.77179        -0.056711     -0.048740     -1.271758
O       9.49317     13.37186      0.68745         0.084762      0.064101     -1.798645
O       9.44398     13.30988     13.64592        -0.049613      0.295486     -0.307282
O       9.55351      2.04007      4.97670        -0.161085      0.097154     -1.054810
O       9.57364     13.09207      4.98669         0.065374      0.432623     -0.897637
O       9.55745      1.92586      9.45428        -0.075684     -0.148533     -2.494037
O       9.44362     13.50729      9.39724         0.449919      0.060634     -1.820868
O       9.40816      5.73971      0.57432         0.448844      0.469873     -1.164987
O       9.46176      5.68498     13.75348         0.193268     -0.355134     -1.383859
O       9.55062      5.54073      5.00673        -0.138448      0.138726     -2.679823
O       9.65128      5.58036      9.36740         0.312324      0.454218      0.130323
O       9.53203      9.43701      0.62316        -0.018763     -0.015782     -1.093773
O       9.47831      9.53648     13.69100         0.121737      0.450425     -1.668425
O       9.62953      9.71597      5.01930        -0.051924      0.034940     -1.430577
O       9.57970      9.51292      9.26191        -0.184154      0.089943     -0.559272
O       3.83778      1.85226      2.79404         0.444232      0.025329      0.348437
O       3.91529      1.85822     15.82285        -0.880973     -0.176946      0.533064
O       3.75052     13.51607      2.67076         0.472686     -0.522937      0.329019
O       3.77415     13.19687     15.67202         0.800189      0.763823      0.515095
O       0.05184      1.89581      2.82888        -0.331291      0.158952      0.045232
O      15.35916      1.83522     15.87207         1.114145      0.079143      0.048982
O       0.02791     13.39265      2.63648        -0.338736      0.155480      0.555855
O      15.27960     13.49283     15.86618        -0.338944     -0.405429      0.209457
O       3.78050      2.02432      7.10099         0.683371     -0.235875      0.499496
O       3.77193     13.40461      7.22352        -0.292089      0.539653      0.106256
O      15.35174      1.98354      7.14844        -1.000846     -0.601738      0.388533
O      15.28187     13.37624      7.15220        -0.295494      0.159854      0.640561
O       3.81119      1.78892     11.40217        -0.007542      0.510220      0.267888
O       3.82571     13.35025     11.42918        -0.717951     -0.131787      0.235096
O       0.01159      1.85207     11.38117        -0.478674      0.334001      0.593811
O      15.31509     13.37321     11.43882        -0.054838      0.008741      0.033435
O       3.86095      5.73904      2.75698        -0.123568     -0.013717      0.142715
O       3.75700      5.64352     15.85486         0.054254      0.189107      0.543545
O      15.32295      5.65005      2.80109         0.641044      0.340298      0.079676
O      15.31577      5.70034     15.82436        -0.466481     -0.065275      0.347077
O       3.74047      5.88796      6.98150         0.273754     -0.333273      0.726571
O      15.25938      5.81500      7.12672        -0.592361     -0.301776      0.140835
O       3.81805      5.72405     11.49042        -0.946213      0.197046     -0.159652
O      15.31449      5.66293     11.60255         0.408656      0.136036      0.071543
O       3.83196      9.55404      2.67314        -0.043689     -0.442605      0.630836
O       3.74932      9.56753     15.82910         0.810613     -0.160638      0.119601
O       0.02793      9.54878      2.76080        -0.156343      0.349427     -0.000243
O      15.24920      9.59404     15.73976        -0.541697     -0.510991      0.729956
O       3.77178      9.43711      7.05575         1.111935      0.015155      0.244339
O      15.30084      9.62692      7.01812        -0.446756      0.330722      0.623511
O       3.84891      9.53925     11.44412        -1.546661     -0.008264      0.404964
O      15.24393      9.65678     11.49365         1.301253     -0.591188      0.387038
O       7.68425      1.89290      2.87132        -0.096254      0.251363     -0.127914
O       7.61991      1.87437     15.83744         0.452613     -0.078294      0.165108
O       7.69539     13.30871      2.80269        -0.887526      0.122633      0.541776
O       7.53798     13.36968     15.75236         0.287874      0.114317      0.081669
O       7.64584      1.97758      7.08583        -0.544869     -0.088682      0.239514
O       7.54184     13.37835      7.08462         0.245233      0.040504      0.016007
O       7.61660      1.83666     11.48435         0.396235      0.282623      0.146234
O       7.66011     13.42456     11.38342        -0.693362     -0.000579      0.848532
O       7.69233      5.59760      2.68513        -0.973556      0.359335      0.572143
O       7.64876      5.74783     15.81057        -1.050669     -0.162101      0.383009
O       7.64759      5.79964      7.18071         0.517166     -0.235817     -0.198353
O       7.59964      5.64026     11.49337         0.868538      0.593119      0.323143
O       7.72693      9.61480      2.73148        -1.179137     -0.069143      0.301945
O       7.58869      9.49984     15.74702        -0.531968      0.022987      0.468776
O       7.61374      9.59727      7.04696        -0.277214      0.320914      0.287454
O       7.61011      9.45759     11.29039         0.900102     -0.058615      0.826485
O      11.54163      1.88721      2.91241         0.740857      0.115326     -0.560101
O      11.46405      1.97068     15.86666        -0.086982     -0.545641      0.230368
O      11.48652     13.47475      2.78720         0.402096     -0.290873      0.229277
O      11.40454     13.38147     15.66759        -0.093210      0.258218      0.571486
O      11.42769      1.90470      6.99779         1.146376     -0.120220      0.498568
O      11.42329     13.49666      7.19212        -0.214448     -0.352180     -0.236194
O      11.48849      1.96168     11.47905        -0.171138     -0.266933      0.784738
O      11.39520     13.46605     11.58860         0.972786     -0.466139     -0.104314
O      11.50834      5.84908      2.66849        -0.300574     -0.209422      0.195154
O      11.41787      5.63085     15.78157         1.338103      0.191713      0.564031
O      11.52445      5.79143      7.06555        -0.584033     -0.428892      0.303699
O      11.52429      5.63846     11.61319        -0.999688      0.052044      0.302834
O      11.52778      9.49570      2.69425        -0.153273      0.029570      0.291194
O      11.34756      9.55999     15.95267         1.041705      0.073646     -0.298802
O      11.43292      9.71147      7.11767         0.876077     -0.336376      0.399600
O      11.43650      9.56503     11.44074        -0.499188     -0.087223      0.569787
O       1.98718      3.75582      2.89858        -0.356484      0.680404     -0.364178
O       1.91260      3.74883     15.76438        -0.161048      0.080446      0.561010
O       1.85306     15.34996      2.75385         0.179567     -0.074889      0.084610
O       1.93091     15.28389     15.89908         0.333558      1.563332      0.188089
O      13.48064      3.83632      2.81124        -0.566142     -0.426668      0.094653
O      13.37784      3.73553     15.87839         0.371546      1.285494      0.411210
O      13.47155     15.29932      2.76195         0.119907      0.668447      0.351256
O      13.35539      0.00747     15.84270         0.078142     -0.739060      0.172087
O       1.82658      3.90549      7.07499         0.009442     -0.198469      0.429939
O       1.82859     15.35536      7.04383         0.112399      0.021242      0.972484
O      13.44147      3.81544      6.98320        -0.499582      0.632527      0.360733
O      13.36909      0.01063      7.15373         0.343461     -0.212431      0.455869
O       1.87991      3.81090     11.46985         0.181424      0.331557     -0.094256
O       1.87154     15.32945     11.37003         0.271529     -0.651318      0.197651
O      13.40828      3.76903     11.60199         0.145702     -0.634039      0.562720
O      13.36680     15.34681     11.51493        -0.046905     -0.403418      0.063712
O       1.91450      7.63667      2.59038        -0.060283     -0.287104      1.197495
O       1.91038      7.59912     15.77402        -0.230598      0.427969      0.839712
O      13.53033      7.67246      2.80108        -0.147535     -0.251886      0.081679
O      13.31099      7.62026     15.85655         0.084511      0.008315     -0.196680
O       1.69186      7.68640      6.97756         0.232055     -0.141986      0.629467
O      13.33336      7.74189      6.98832         0.084240     -0.188985      0.691326
O       1.75960      7.63298     11.50003         0.496963      0.800222     -0.012762
O      13.36852      7.58814     11.51776         0.097900      0.007774      0.591236
O       1.94424     11.49855      2.63806        -0.018306      0.244250      0.166478
O       1.70414     11.50552     15.69488         0.292773     -0.415080      1.048646
O      13.40781     11.46412      2.70836         0.086560      0.044280      0.329984
O      13.27920     11.51944     15.73867         0.563048     -0.585157      0.444448
O       1.88514     11.46929      7.12312         0.186628      0.024494      0.780739
O      13.24798     11.57661      7.14986         0.462690     -0.758027      0.359354
O       1.87780     11.44471     11.47337         0.107775      0.200918      0.412427
O      13.32957     11.46250     11.51619        -0.086004      0.397644      0.312491
O       5.71850      3.75307      2.67494        -0.041780      0.465989      0.406765
O       5.75918      3.73158     15.73149        -0.080127      1.112767      0.667251
O       5.68166     15.27166      2.74754         0.657738      0.166239      0.692165
O       5.77316     15.29513     15.64882        -0.672061     -0.589294      0.565784
O       5.67537      3.91078      7.15230         0.252316     -0.521888     -0.332044
O       5.67058      0.01457      7.15149        -0.157455      0.228666     -0.048288
O       5.70989      3.81961     11.53406        -0.049558     -0.421094     -0.257302
O       5.67301     15.30670     11.44332         0.246259     -0.188175     -0.088166
O       5.84168      7.60121      2.59955        -0.056555     -0.060502      0.690839
O       5.68475      7.63096     15.82284        -0.320527     -0.050857      0.283114
O       5.79133      7.67218      7.15034        -0.495970      0.658642      0.366525
O       5.66407      7.60291     11.58471         0.383014      0.117507     -0.186156
O       5.60542     11.45332      2.90652         0.602193     -0.360757     -0.435963
O       5.70157     11.43343     15.75043         0.244451     -0.078151     -0.046465
O       5.51876     11.49044      6.89096         0.421486     -0.186908      0.309850
O       5.76404     11.45044     11.43451        -0.005858      0.582402      0.323824
O       9.71542      3.81804      2.61936        -0.245471      0.334887      0.606613
O       9.53840      3.79488     15.95583         0.160081     -0.287607     -0.348702
O       9.54647     15.34159      2.92437         0.312958     -0.270925     -0.017239
O       9.52290     15.32537     15.79030        -0.240452     -0.521087     -0.008206
O       9.53615      3.82868      7.20347         0.235672      0.297059     -0.207567
O       9.46644     15.34236      7.03687         0.119193     -0.166533      0.128195
O       9.51288      3.81424     11.50706         0.134663     -0.116105      0.782709
O       9.57599     15.34280     11.59282        -0.130592      0.347144     -0.175772
O       9.51400      7.62799      2.78263         0.006541      0.002475      0.101895
O       9.55417      7.64920     15.65734        -0.005222     -0.288117      1.197792
O       9.63128      7.69104      7.02427        -0.296210     -0.473846      0.203607
O       9.59834      7.63398     11.48365        -0.227468     -0.528719     -0.011608
O       9.64427     11.45662      2.69238         0.205208     -0.767821      0.356136
O       9.42122     11.49640     15.80302         0.376489      0.282758      0.150167
O       9.50340     11.54443      7.30357         0.503873     -0.061339     -0.376594
O       9.48438     11.46615     11.34184         0.230629     -0.231296      0.513305
