  # total energy = -7881.53599374 
CRSYTAL
PRIMVEC
    15.3600000000000000    0.0000000000000000    0.0000000000000000
     0.0000000000000000   15.3600000000000000    0.0000000000000000
     0.0000000000000000    0.0000000000000000    17.440000000000000
PRESSURE
1.80204 2.2477 -2.09921 -0.156764 -0.104029 -0.02549
PRIMCOORD
320 1
Pb       3.81475      3.82739      4.36490        -0.313477      0.182923     -0.280345
Pb       3.87492      3.83242     17.38703        -0.035977      0.087138     -0.193820
Pb       3.81453      0.02202      4.28661        -0.186643      0.055799     -0.208738
Pb       3.67318      0.02134     17.40021         0.814308     -0.051028      0.663923
Pb       0.02313      3.72410      4.35326         0.019677      0.386100      0.504876
Pb       0.07044      3.97900     17.38582        -0.258407     -0.376877      0.110552
Pb       0.02756     15.33110      4.29197        -0.276972      0.085913      0.457736
Pb      15.23995     15.28599     17.40204         0.020699      0.416021      0.161331
Pb       3.76003      3.72700      8.75195         0.141372      0.331480     -0.047779
Pb       3.91237      0.00964      8.57550        -0.876238     -0.477896      1.119900
Pb      15.25395      3.87076      8.66045        -0.183217      0.128501      0.208615
Pb      15.23449      0.03286      8.66396        -0.003886     -0.524061      0.320309
Pb       3.66906      3.73490     13.07337         0.608115     -0.009246      0.206812
Pb       3.72165     15.29019     12.97813        -0.330065      0.645364      0.592270
Pb       0.02223      3.79744     13.05478        -0.097695      0.156184      0.079143
Pb       0.02504     15.34000     13.03892         0.034559     -0.158711      0.096613
Pb       3.84861      7.64442      4.31987         0.186515     -0.267718     -0.314357
Pb       3.78405      7.57945     17.34844         0.026490      0.551541      0.194961
Pb       0.06930      7.79937      4.36400        -0.491281     -0.523353      0.266320
Pb      15.11794      7.69062     17.34027         0.768205     -0.032330      0.777827
Pb       3.89066      7.68425      8.70751        -0.007150      0.168349     -0.007109
Pb       0.08211      7.59395      8.64099        -0.615754     -0.063929      0.869457
Pb       3.78017      7.57803     12.94995         0.097325      0.630145      1.268543
Pb       0.03024      7.62617     13.08896        -0.157279      0.016432      0.335499
Pb       3.78519     11.59023      4.20910         0.025412     -0.261264      0.353409
Pb       3.97824     11.57275     17.40587        -0.285113     -0.339292      0.123924
Pb      15.32511     11.57480      4.36236         0.252470     -0.057469     -0.041779
Pb      15.29097     11.59627     17.27574         0.101005     -0.389077      0.787715
Pb       3.85490     11.54665      8.60464        -0.339783     -0.038225      0.201511
Pb      15.24112     11.39395      8.66224         0.418742      0.601939      0.201220
Pb       3.86730     11.51229     13.16564        -0.393644     -0.725696     -0.297255
Pb       0.09058     11.58077     13.09356        -0.010489     -0.354240      0.221737
Pb       7.72595      3.72916      4.39507        -0.000192      0.247522      0.195647
Pb       7.65879      3.90733     17.35974         0.104840     -0.065650      0.406124
Pb       7.73459      0.05875      4.33183         0.097053      0.205559     -0.301504
Pb       7.63882      0.07844     17.32057        -0.040812     -0.353397      0.550286
Pb       7.69290      3.75125      8.76464        -0.319524      0.104583      0.233032
Pb       7.64015     15.16892      8.64447         0.281332      0.793878      1.110258
Pb       7.80208      3.85922     13.16126        -0.349659      0.218775     -0.503652
Pb       7.59704      0.12118     13.05771         0.660281     -0.339909      0.459980
Pb       7.68512      7.54776      4.29592         0.301902      0.247325      0.622122
Pb       7.65485      7.76058     17.37507         0.038638     -0.767064      0.620113
Pb       7.63257      7.70057      8.63474         0.209955     -0.048095      0.508491
Pb       7.51758      7.68108     12.99606         0.591309      0.000238      0.335601
Pb       7.66254     11.55781      4.31016         0.127324     -0.317604      0.391013
Pb       7.76532     11.49635      0.04187         0.132419      0.304148      0.003695
Pb       7.45102     11.53473      8.53541         0.935712     -0.295854      1.491055
Pb       7.70121     11.42897     13.06371        -0.089277     -0.371689     -0.427068
Pb      11.43801      3.80463      4.29621        -0.265921     -0.180655      1.111650
Pb      11.74368      3.86784     17.40971        -0.934553     -0.120588      0.319167
Pb      11.44300     15.25228      4.28773         0.124191      0.353884      0.334589
Pb      11.43453     15.29295     17.43003         0.226723      0.217556      0.041873
Pb      11.36037      3.87613      8.69472         0.702467     -0.269421      0.393402
Pb      11.54385     15.29792      8.67631        -0.319545     -0.098164      0.323266
Pb      11.60603      3.74048     13.10579        -0.421899      0.181595     -0.197727
Pb      11.61888      0.00466     12.91676        -0.530036     -0.071524      1.186488
Pb      11.44716      7.71069      4.27934         0.019346      0.156218      0.940987
Pb      11.59120      7.62390     17.36914        -0.375524      0.237510      0.992872
Pb      11.44625      7.66431      8.71534         0.230452     -0.207796     -0.143470
Pb      11.41255      7.68940     13.00703         0.601813     -0.054625      0.273440
Pb      11.58504     11.44151      4.31840        -0.418350      0.459931      0.244958
Pb      11.44447     11.42020     17.36531         0.295854      0.302708      1.059014
Pb      11.63857     11.50030      8.58099        -0.499246      0.213216      0.523332
Pb      11.53196     11.45006     12.97965        -0.248834      0.013228      0.950636
Ti       1.81109      1.85584      2.29563         0.823158      0.445065     -0.375653
Ti       1.83751      1.92336     15.49821        -0.172079      0.335813     -1.296054
Ti       1.89876     13.37826      2.17729        -0.614150      1.035822      1.345278
Ti       1.87686     13.45799     15.45482         0.675592      0.143164     -0.435617
Ti      13.36049      1.93055      2.32919         0.465650     -0.236512     -1.094258
Ti      13.40342      1.87638     15.51606        -0.477528     -0.563137     -0.711932
Ti      13.46776     13.44808      2.37932        -2.387085     -0.005952     -1.592229
Ti      13.34992     13.40731     15.39760         0.450423      0.595581     -0.886847
Ti       1.84529      1.87346      6.67907        -0.072697      0.103593      0.047015
Ti       1.78593     13.45048      6.74408         0.346675     -0.589386     -0.779663
Ti      13.40515      1.90532      6.70581        -1.090108     -1.254828     -0.793077
Ti      13.38448     13.41019      6.68870        -0.122493      0.105786     -0.423456
Ti       1.78032      1.88808     11.01372         1.224897     -0.859075      0.863888
Ti       1.91944     13.33171     11.07164        -0.773364      0.636796     -1.726158
Ti      13.39065      1.88471     10.99922        -0.105406      0.061931     -0.794756
Ti      13.36255     13.30999     11.14709         1.006794      0.947711     -2.336687
Ti       1.81426      5.78942      2.32436         0.778028     -1.155204     -0.901177
Ti       1.92280      5.80423     15.44740        -0.204161     -0.048077     -0.881484
Ti      13.43070      5.73060      2.59162        -0.039277      0.978305     -1.735936
Ti      13.39421      5.69506     15.34050         0.841067      0.734436     -1.002323
Ti       1.92534      5.71143      6.82111         0.125427      0.281264     -1.379576
Ti      13.38131      5.70314      6.69682         0.195363      0.457502     -0.907599
Ti       1.88678      5.76968     11.05471        -0.757083     -0.348185     -0.615703
Ti      13.44458      5.73409     11.09422        -0.452552     -0.178262     -2.423180
Ti       1.95245      9.55880      2.26598         0.182613      0.398736     -2.022834
Ti       1.89264      9.62252     15.49626         1.512652     -0.336301     -1.598810
Ti      13.51669      9.61647      2.42545        -0.441239     -0.258038     -1.273617
Ti      13.46249      9.62820     15.32551        -0.141256     -0.446360     -1.067438
Ti       1.96496      9.58060      6.67552         0.470465     -0.078091      0.702145
Ti      13.48887      9.46427      6.74561        -0.550833     -0.027734     -1.078247
Ti       1.92371      9.58755     11.08798         0.378600     -0.287410     -0.761232
Ti      13.55352      9.56957     11.08598        -0.433992     -0.900486     -0.835247
Ti       5.76548      1.96399      2.39165        -0.106120     -0.984565     -1.061464
Ti       5.69442      1.85628     15.43844         0.050670      0.713652     -2.041682
Ti       5.70826     13.47029      2.37124         0.659567      0.644522     -0.710127
Ti       5.78952     13.41139     15.34325        -0.101450      0.149691      1.902349
Ti       5.74152      1.89856      6.71870        -0.113032      0.396226     -0.938197
Ti       5.71462     13.46310      6.58165        -1.108922     -0.614065     -0.548663
Ti       5.73719      1.91461     11.15778        -0.761064      0.821611     -0.589213
Ti       5.72486     13.49616     11.18253         0.194682     -1.778496     -1.682014
Ti       5.77030      5.66393      2.33136        -0.094960      1.149879     -0.501968
Ti       5.79085      5.72865     15.35842        -0.829745     -0.100028     -0.231047
Ti       5.78754      5.65920      6.74349        -0.306156      0.147415     -0.477406
Ti       5.70801      5.77669     11.02401         1.149251     -1.286346     -0.493638
Ti       5.86431      9.57060      2.30503        -1.247964     -0.273331     -0.800401
Ti       5.79612      9.58427     15.50357        -0.882027     -0.750688     -0.772264
Ti       5.85302      9.52937      6.57547        -0.753397      0.184196      0.593511
Ti       5.72703      9.58836     11.04560         0.252089      0.021692     -1.066818
Ti       9.63020      1.95914      2.21634        -0.947465     -0.846755      1.338360
Ti       9.54432      1.98608     15.42968         0.739534     -0.255627     -1.586017
Ti       9.56271     13.40359      2.42326         0.173344      0.580016     -0.689268
Ti       9.60952     13.48501     15.42851        -0.306629      0.174075     -0.084825
Ti       9.55602      1.88431      6.79876         0.303809     -0.739936     -1.485285
Ti       9.55214     13.44258      6.70354         0.679397     -0.218151     -1.307978
Ti       9.52714      1.86008     11.10760         0.467213      0.615701     -0.987263
Ti       9.56772     13.37119     11.11373        -0.918435      0.945628     -2.076268
Ti       9.57658      5.67956      2.34624        -0.817246      0.975760     -1.433356
Ti       9.61179      5.80835     15.44061        -0.251079     -1.225879      0.014626
Ti       9.58423      5.71690      6.81180        -0.747869      0.897893      0.756509
Ti       9.65357      5.79007     11.05133        -1.041189     -1.311047     -1.638798
Ti       9.62150      9.63070      2.41310         0.251295     -0.380954     -0.945227
Ti       9.66024      9.58581     15.43294        -0.825475     -0.002557     -0.380275
Ti       9.66996      9.65978      6.78965        -1.610451     -1.292549     -2.141333
Ti       9.68378      9.60014     10.90649        -1.656254     -0.034754     -0.746664
O       1.86354      1.84679      0.50950        -0.271430      0.431664      0.013369
O       1.84281      1.79005     13.66097        -0.234545      0.314998      1.157045
O       1.88903     13.38725      0.45287        -0.090527      0.188598     -0.912681
O       2.00032     13.42667     13.66289        -0.416196      0.020031      0.046585
O      13.42930      2.07718      0.42861        -0.160451     -0.451780      2.214619
O      13.33023      1.69473     13.74750         0.522485      0.671201     -0.293684
O      13.28922     13.38970      0.58903         0.402245      0.120985     -0.077802
O      13.33885     13.31744     13.59846         0.196276      0.390415      0.176558
O       1.83335      1.81200      4.89218         0.056305      0.113030      0.726619
O       1.77519     13.49312      4.96042        -0.071379     -0.183813      0.002385
O      13.38363      1.75214      4.95659        -0.075012      0.336790     -0.556013
O      13.33299     13.42825      4.92489         0.320575     -0.023268     -0.824688
O       1.85513      1.91124      9.28346        -0.299539     -0.114851     -0.471560
O       1.88264     13.29016      9.28911        -0.072892     -0.103366      0.060312
O      13.35429      1.79053      9.18862         0.277154      0.429275      1.239696
O      13.37395     13.27978      9.27877        -0.053014     -0.079195      1.255599
O       1.86520      5.78536      0.47922         0.011641     -0.306269      1.447240
O       1.86998      5.67983     13.67684        -0.193286      0.312169     -0.765071
O      13.43792      5.72463      0.72338        -0.153612     -0.185982      0.880331
O      13.40591      5.78699     13.54971        -0.154026     -0.341052      0.889704
O       1.94462      5.68617      5.03066         0.176457      0.373524      0.060073
O      13.43886      5.87756      4.90603         0.007724     -0.362335      0.137721
O       1.72320      5.79443      9.27169         0.601965     -0.316810      0.721771
O      13.40802      5.65257      9.18059        -0.133250     -0.051794      1.615091
O       1.88137      9.56525      0.43557        -0.070226      0.207871      1.571664
O       2.12777      9.59580     13.67710        -0.776944      0.259357      0.909547
O      13.51932      9.57049      0.65037        -0.132337      0.397012     -0.345903
O      13.48564      9.66237     13.54038        -0.415443     -0.279951      0.997402
O       1.95478      9.53984      4.91096        -0.044060     -0.178141     -0.393484
O      13.57772      9.45838      4.93236        -0.230801      0.284607      0.320156
O       1.94701      9.54698      9.30502        -0.363766      0.171276      0.437499
O      13.50517      9.57149      9.22789        -0.244537      0.244423      1.573359
O       5.81482      1.91558      0.60335        -0.289177      0.169542     -0.011125
O       5.59190      1.87778     13.58952         0.783084     -0.196783      1.366014
O       5.69782     13.50313      0.58835         0.200966     -0.292509      0.478277
O       5.71004     13.35748     13.62733         0.069830      0.101721     -1.323115
O       5.68307      2.02511      4.92268        -0.086804     -0.392004      0.335102
O       5.60283     13.52033      4.82025         0.256356     -0.297909      0.559485
O       5.75467      1.82972      9.38716        -0.396257      0.185550      0.010030
O       5.75393     13.19839      9.39999        -0.345483      1.088399      0.026385
O       5.78620      5.63975      0.53847        -0.357901     -0.055302      0.592911
O       5.80308      5.73287     13.59517        -0.022777      0.312380      0.147159
O       5.80212      5.69865      4.93151        -0.724986     -0.109489      0.841214
O       5.82316      5.78850      9.22337        -0.364783     -0.303899      1.239211
O       5.73879      9.62404      0.48147         0.491861     -0.016765      0.973006
O       5.89518      9.54483     13.70959        -0.238339      0.096558      0.114053
O       5.82403      9.65613      4.82214        -0.288911     -0.592407      0.162576
O       5.71539      9.43977      9.23997         0.153221      0.717784      1.064663
O       9.70342      1.97445      0.51764        -0.308321     -0.203218     -1.595882
O       9.37156      1.95134     13.54665         0.714870      0.091479      1.275080
O       9.53684     13.30998      0.63240         0.257864      0.378526     -0.041408
O       9.74125     13.48780     13.71740        -0.622916     -0.491150     -0.947211
O       9.40063      1.95145      4.96978         0.594363     -0.202931      0.982792
O       9.58644     13.48564      4.85554        -0.270600      0.004453      1.628715
O       9.43438      1.87451      9.28265         0.400388     -0.036985      0.793743
O       9.56075     13.47644      9.29484        -0.100148     -0.269991      1.067769
O       9.54013      5.74624      0.56148         0.222402     -0.003434      0.742988
O       9.64209      5.64143     13.67511         0.067019      0.409608     -0.041992
O       9.36985      5.65832      5.12260         0.246059      0.061902     -2.339070
O       9.63911      5.70044      9.12574         0.093042     -0.151563      2.016988
O       9.56641      9.70455      0.57182         0.208101     -0.156370      1.040763
O       9.55551      9.56528     13.67540         0.284196      0.122699      0.260156
O       9.49823      9.49056      4.91141         0.609597      0.514919      1.086476
O       9.55258      9.59349      9.09100         0.632159      0.049308      1.609761
O       3.71266      1.86351      2.63253         0.681361     -0.028009      0.498959
O       3.80964      1.85889     15.76476         0.318573      0.220576      0.507782
O       3.73615     13.48328      2.72021         0.546806      0.224619     -0.111316
O       3.79336     13.51327     15.92553         0.700140     -0.374798     -0.733480
O      15.25728      1.89383      2.88134        -0.605011      0.014688     -0.925896
O      15.27458      2.04160     15.82147         1.276963     -0.745683      0.052438
O      15.25311     13.39083      2.55461         1.763386      0.113017      0.621395
O      15.33158     13.50095     15.77631        -0.550367      0.030963      0.103709
O       3.75364      1.87333      7.18043        -0.221923     -0.192324     -0.420508
O       3.70079     13.44768      7.02532         1.379835     -0.135968      0.230677
O      15.25440      1.86388      7.10648         1.293080     -0.049706      0.084155
O      15.22501     13.27381      7.08027         0.985904      0.405201      0.253893
O       3.68260      1.81696     11.59275         0.497229      0.786039     -0.868820
O       3.74665     13.40302     11.44585         1.573433     -0.252540      0.399229
O      15.27540      1.80385     11.59694         0.063479      0.355471     -0.756253
O      15.32980     13.34457     11.48048        -0.078204      0.009550      0.246828
O       3.78086      5.73929      2.79653        -0.393629      0.180811     -0.235346
O       3.79033      5.64057     15.67637         0.927809      0.544454      0.802671
O      15.30523      5.70263      2.85462         0.669098     -0.062864     -0.223164
O      15.33080      5.79381     15.78973        -0.776354      0.082768      0.013809
O       3.80780      5.71126      7.28054         0.209697     -0.148526     -0.465812
O      15.30168      5.73527      7.13175         0.123387     -0.181477     -0.149466
O       3.77742      5.71691     11.49784         0.170129      0.103566     -0.776671
O      15.24884      5.75005     11.48598         2.087590      0.073175      0.229692
O       3.87736      9.49286      2.59819        -0.606713      0.142411      0.524218
O       3.80663      9.62084     15.84324         0.535231      0.301130      0.291768
O       0.06426      9.67973      2.75660         0.161873      0.092233      0.263696
O      15.32968      9.50161     15.69545        -0.592076      0.470988      0.263573
O       3.85097      9.52680      7.16749         0.315020      0.092832     -0.842841
O      15.29996      9.43487      7.16683         1.068576      0.574470     -0.635056
O       3.81057      9.51797     11.44408         1.127102     -0.190919      0.057641
O       0.03356      9.55570     11.65123        -0.252895      0.317885     -0.872634
O       7.68095      1.88579      2.70908        -0.618169      0.304621      0.037052
O       7.69074      2.03375     15.77215        -1.234648     -0.693133      0.305124
O       7.63061     13.40521      2.80669        -0.068443      0.152415     -0.206763
O       7.70245     13.47581     15.80246        -0.483505     -0.592124     -0.180372
O       7.57130      1.83387      7.04359         0.174291      0.158181      0.450788
O       7.60543     13.42349      7.13480         0.040427      0.019792     -0.952616
O       7.65363      1.83092     11.46147        -0.711846     -0.049768      0.112594
O       7.64472     13.45781     11.44714         0.198472      0.260079      0.656513
O       7.65597      5.72374      2.82762         0.394490     -0.493789     -0.521873
O       7.64129      5.82340     15.86627         0.858579     -0.155615     -0.450254
O       7.63039      5.58509      7.03622        -0.542609     -0.052589      0.844417
O       7.71351      5.83492     11.49569         0.273400     -0.372643     -0.522670
O       7.69747      9.73297      2.69176        -0.247185     -0.431184     -0.156314
O       7.69668      9.54558     15.88282         0.017454      0.273551     -0.209144
O       7.67887      9.59839      7.10748        -0.943680     -0.192429     -0.348451
O       7.79170      9.43596     11.43719        -0.585804      0.348354     -0.160722
O      11.46284      1.97687      2.70067         0.801567      0.113596      0.064534
O      11.48164      1.98647     15.73739         0.218576     -0.054399      0.399181
O      11.44141     13.34758      2.80018         0.310537      0.588941      0.120782
O      11.51713     13.59746     15.77733        -0.336067     -0.959207      0.432556
O      11.44913      1.71786      7.12629        -0.073120      0.681498     -0.140246
O      11.45056     13.36398      7.07807        -0.176169      0.114037      0.099942
O      11.52054      2.01567     11.55441         0.402601     -0.493415     -0.729382
O      11.43023     13.27003     11.46594         1.246381      0.132823     -0.080760
O      11.40080      5.78042      2.89104         0.821548     -0.461232     -0.283222
O      11.55514      5.76490     15.89069        -0.336679     -0.230224     -0.426429
O      11.43730      5.67972      6.84908         1.043868     -0.346517      1.022818
O      11.56034      5.58447     11.39193        -0.982550      0.415792      0.372936
O      11.53097      9.56007      2.74201         0.016179      0.391220      0.140043
O      11.51150      9.57566     15.82609         0.607825      0.296531     -0.223226
O      11.46727      9.50145      7.11795         1.538361      0.304297     -0.087820
O      11.51696      9.58165     11.57923         0.448636      0.177981     -1.117239
O       1.78854      3.73437      2.71739         0.160886      1.227738     -0.032514
O       1.94607      3.87814     15.71969        -0.462964     -1.279720      0.771226
O       1.75032     15.31444      2.66855         0.212099     -0.244632     -0.047591
O       1.87920      0.04573     15.95260        -0.647495     -0.288882     -0.576464
O      13.31829      3.85558      2.96124         0.502510     -0.667034     -0.781527
O      13.49627      3.86283     15.76471        -0.582698      0.359730     -0.167137
O      13.26902      0.03981      2.60820         0.334614      0.219660      0.067643
O      13.42754     15.29266     15.88875         0.018162      0.720263      0.088208
O       1.81745      3.80705      7.07841         0.244753     -0.806522      0.308936
O       1.75854     15.33188      7.07866         0.101483      0.340851      0.285516
O      13.37529      3.71443      6.96826        -0.151157      1.909953      0.400892
O      13.36954     15.25992      7.06595         0.369901      0.034922      0.542246
O       1.86641      3.83919     11.35639        -0.463843     -0.278552      0.443242
O       1.87212     15.28374     11.34485        -0.406511      0.229942      0.454522
O      13.55542      3.81210     11.43758        -0.371669     -1.006721      0.139182
O      13.37888     15.29770     11.30182        -0.120808      0.009892      0.427423
O       1.80605      7.64423      2.61693         0.310937      0.306764      0.406777
O       1.94729      7.71521     15.73491        -0.067551     -0.502082      0.308584
O      13.53167      7.74128      2.64270        -0.283711     -1.028636      0.872515
O      13.31870      7.71396     15.83298         0.526096     -0.390702     -0.521360
O       1.92935      7.64926      7.16992        -0.092165      0.094828     -0.397821
O      13.33290      7.56562      7.15540         0.026909      0.651099     -0.114998
O       1.86007      7.64169     11.56799         0.049827     -0.298216     -0.433192
O      13.45006      7.65128     11.46249        -0.403850      0.565957     -0.096967
O       1.92719     11.58311      2.61706        -0.003288     -1.522409      0.381730
O       1.78156     11.60517     15.71790         0.281488     -0.953787      0.337272
O      13.35959     11.56855      2.73704         0.396980     -0.957258      0.628309
O      13.47318     11.52729     15.69848        -0.332102     -0.448712      0.438455
O       1.89902     11.45590      6.92122        -0.314779     -0.162864      0.595400
O      13.40662     11.43482      6.94100        -0.264744     -0.611073      0.637550
O       2.06142     11.41638     11.48500        -0.912851      0.718503      0.344325
O      13.52338     11.46517     11.43351        -0.511126     -0.575563      0.151363
O       5.64367      3.84420      2.73691         0.188949     -0.731714      0.212017
O       5.76691      3.82943     15.73178        -0.198648     -0.532603      0.437043
O       5.77066      0.02329      2.79057        -0.407221      0.038099      0.058564
O       5.87595     15.31616     15.76116        -0.474155      0.618853     -0.142340
O       5.59174      3.72194      7.24432         0.519931      0.518781     -0.382711
O       5.66857     15.29357      7.06854         0.160315      0.364381     -0.060749
O       5.75053      3.84564     11.47863        -0.170473     -0.339422     -0.310552
O       5.62642     15.32985     11.44424         0.411693      0.258787      0.272360
O       5.88209      7.58461      2.63914        -0.561279      1.382300      0.209778
O       5.63065      7.60583     15.87120         0.572203      0.660761     -0.194781
O       5.81315      7.61640      7.08213        -0.342575      0.220539     -0.607804
O       5.76898      7.63919     11.38314        -0.392931      0.176792      0.499732
O       5.68393     11.54584      2.74256        -0.059243     -0.421040     -0.244434
O       5.70110     11.48712     15.73904         0.329918      0.738790      0.206527
O       5.77943     11.53774      6.95128        -0.684927     -0.263090     -0.108323
O       5.84106     11.43656     11.38465        -0.260040     -0.076048      0.883717
O       9.47210      3.78855      2.69448         0.583787      0.923018      0.282720
O       9.56300      3.83199     15.85256         0.143809      1.197390     -0.266606
O       9.55994      0.05053      2.73503         0.159430     -0.606910     -0.181251
O       9.55744      0.08652     15.75123         0.051180     -0.799384      0.600152
O       9.57036      3.69169      7.19108        -0.157975      1.138345      0.052695
O       9.51884     15.31907      7.17831        -0.145407     -0.763196     -0.297017
O       9.53686      3.79471     11.41881        -0.012029      0.593337      0.069150
O       9.70964     15.35392     11.49842        -0.505738     -0.389377     -0.185737
O       9.62547      7.67456      2.78529        -0.839206      0.037650     -0.353410
O       9.64395      7.65046     15.81653        -0.036127      0.472537      0.058071
O       9.55787      7.67782      7.21004         0.017277     -0.723530     -0.453245
O       9.76005      7.64908     11.32919         0.060514     -0.087354     -0.003765
O       9.59251     11.53663      2.80892        -0.026082     -0.875161      0.165699
O       9.61270     11.50262     15.92608        -0.126240      0.261770     -0.807733
O       9.54926     11.49909      7.03993         0.043952      1.064840     -0.001075
O       9.50182     11.45022     11.41884         0.339259      0.098441      0.141996
