  # total energy = -7868.42071271 
CRSYTAL
PRIMVEC
    15.010000000000000    0.0000000000000000    0.0000000000000000
     0.0000000000000000   15.010000000000000    0.0000000000000000
     0.0000000000000000    0.0000000000000000    16.400000000000000
PRESSURE
17.7335 17.8361 5.56088 0.108733 -0.052822 -0.010982
PRIMCOORD
320 1
Pb       3.98863      3.68325      4.31329        -1.320269      0.029335     -1.014046
Pb       3.82331      3.77954      0.11256        -0.291406     -0.265126     -0.342496
Pb       3.69843      0.13270      4.13380         0.146974     -0.480897     -0.169519
Pb       3.81216      0.02305     16.35927        -0.498049     -0.147884     -0.207078
Pb      14.92150      3.63222      4.08655         0.570790      0.818892     -0.516008
Pb       0.01123      3.65798     16.34542         0.121425      0.514690      0.101664
Pb      14.94825      0.05576      4.21876         0.364375     -0.564293     -0.888649
Pb      14.89324     14.99140      0.04804         0.492385      0.273834     -0.384023
Pb       3.80697      3.63660      8.30531        -0.423551      0.624695     -0.577395
Pb       3.84358     14.92241      8.28543        -0.532585     -0.085843     -0.383710
Pb       0.02867      3.74784      8.28925         0.434976      0.265799      0.002253
Pb      14.93769     14.89067      8.16002         0.712275      0.533684      0.241465
Pb       3.83387      3.71181     12.22657        -0.930374      0.434078      0.101494
Pb       3.74962      0.01421     12.45825        -0.145618     -0.026247     -0.680450
Pb       0.01045      3.67802     12.32372         0.359888      0.206795     -0.420279
Pb       0.01435      0.01352     12.29066         0.288346      0.160099     -0.281196
Pb       3.56060      7.57304      4.07850         0.397997     -0.585312     -0.144826
Pb       3.77499      7.41535      0.20776        -0.191125      0.460902     -0.783196
Pb      14.93258      7.49257      4.10937        -0.081917     -0.204110     -0.202587
Pb      14.96539      7.51692      0.08204        -0.070360      0.088552     -0.534646
Pb       3.69860      7.58705      8.06040         0.016381     -0.826206      0.342708
Pb      15.00439      7.54456      8.20551         0.051857     -0.668443      0.145028
Pb       3.76578      7.57662     12.29798        -0.194747     -0.440659     -0.145410
Pb       0.04249      7.34120     12.31654        -0.099603      0.312015     -0.145251
Pb       3.58762     11.20442      4.18610         0.504122      0.598520     -0.414442
Pb       3.74421     11.02132     16.31442        -0.324304      0.856017      0.231530
Pb      14.97411     11.19946      4.10181        -0.229527      0.465557     -0.295967
Pb      14.93966     11.37986      0.07881         0.036571     -0.590035     -0.829504
Pb       3.68198     11.07939      8.24042         0.149197      0.818143     -0.322221
Pb      14.98556     11.14700      8.15174         0.211507      0.298727      0.289881
Pb       3.76891     11.28857     12.35698        -0.535365     -0.043397     -0.471242
Pb       0.00950     11.28254     12.32927         0.157076     -0.128280     -0.395770
Pb       7.49688      3.70933      4.14778         0.272046     -0.146481     -0.449704
Pb       7.51162      3.85156     16.36011         0.171928     -0.448228      0.153984
Pb       7.46771     14.86334      4.22561         0.141135      0.819821     -0.527625
Pb       7.32144     14.99485     16.38136         0.910723      0.016121     -0.211924
Pb       7.50919      3.65598      8.23987         0.042218      0.312020     -0.489576
Pb       7.50286      0.00071      8.27673         0.046333     -0.206044     -0.362758
Pb       7.44384      3.72294     12.26954         0.462356      0.173207     -0.101578
Pb       7.57923     14.84677     12.40556        -0.140316      0.653588     -0.167091
Pb       7.28776      7.52095      3.99891         0.913468      0.085842      0.396223
Pb       7.46434      7.43556      0.04115         0.375029      0.670420     -0.126051
Pb       7.48435      7.49093      8.36736         0.211734      0.160947     -1.159830
Pb       7.57176      7.43386     12.48747        -0.292522      0.121202     -0.810167
Pb       7.47319     11.33401      4.07964         0.159945     -0.065738     -0.046905
Pb       7.52870     11.26910      0.07432        -0.047634     -0.228463     -0.403803
Pb       7.44003     11.20428      8.23638         0.211376     -0.118783     -0.436642
Pb       7.54087     11.17268     12.33602         0.062614      0.226371      0.023831
Pb      11.16314      3.75340      4.13154         0.206356     -0.171691     -0.239050
Pb      11.32522      3.82654     16.37694        -0.561152     -0.286867     -0.175466
Pb      11.43059     14.96071      4.22587        -0.944998      0.550692     -0.502760
Pb      11.08929     14.88686      0.09453         0.232862      0.630042     -0.350644
Pb      11.44852      3.75503      8.12244        -1.040872     -0.008055      0.448049
Pb      11.33578     14.87650      8.24008        -0.520965      0.703703     -0.313613
Pb      11.33821      3.70499     12.19724        -0.249947      0.257455      0.071454
Pb      11.30783      0.12619     12.28687        -0.756099     -0.502862     -0.050080
Pb      11.22775      7.45739      4.17719        -0.041507      0.082237     -0.413460
Pb      11.12154      7.44388      0.11946         0.344138      0.465600     -0.613015
Pb      11.08610      7.43628      8.18566         0.590573      0.453521      0.028996
Pb      11.28649      7.32387     12.29160         0.314872      0.830046     -0.209296
Pb      11.30482     11.27575      4.15399        -0.388887      0.170057     -0.486395
Pb      11.20943     11.14866      0.05035         0.126746      0.321222     -0.239592
Pb      11.09166     11.19472      8.28888         0.146863      0.008333     -0.182154
Pb      11.18904     11.31215     12.25248         0.049324     -0.271123      0.208465
Ti       1.91580      1.89701      2.10593        -0.184156     -0.066360     -0.692030
Ti       1.91862      1.91951     14.48814        -0.112823     -0.700663     -1.105561
Ti       1.83574     13.17743      2.06801        -0.517510     -0.173574     -0.360103
Ti       1.80624     13.15038     14.36382         0.271849      0.131903      0.233271
Ti      13.07268      1.88835      2.05166        -0.192392     -0.657449     -0.156674
Ti      13.11602      1.83264     14.38701         0.317624      0.410488     -0.064705
Ti      13.13610     13.15357      2.07562        -0.519738      0.121349      0.418767
Ti      13.06138     13.12071     14.31954        -0.397136     -0.067554      0.684263
Ti       1.81109      1.90281      6.22167         1.302689     -0.255484      0.028927
Ti       1.92014     13.12912      6.19337        -0.499150      0.712370     -0.207822
Ti      13.16833      1.97467      6.19766        -0.989295     -1.617507     -0.194249
Ti      13.14056     13.08964      6.23398        -0.616118      0.541309     -0.598632
Ti       1.85992      1.87017     10.24959        -0.167783     -0.095277      0.943039
Ti       1.81009     13.15866     10.24955         0.302246     -0.312681      0.274377
Ti      13.07989      1.81994     10.24379         1.002951      0.757938      0.297928
Ti      13.06566     13.07592     10.25005         0.101351      0.534377      0.691968
Ti       1.87098      5.60368      2.07203        -0.394146      0.227076      0.106452
Ti       1.93784      5.67184     14.43007        -1.219545     -0.540527     -0.673232
Ti      13.14411      5.61092      2.13417        -0.130720      0.812523     -0.048841
Ti      13.16151      5.66185     14.45258        -0.394792      0.532764     -0.301037
Ti       1.86539      5.58347      6.08373         0.157918      0.394680     -0.079914
Ti      13.13036      5.67078      6.21044         0.469529      0.293638     -0.892334
Ti       1.92706      5.64048     10.27707        -0.323459     -0.267805     -0.119243
Ti      13.14732      5.62577     10.24036         0.601179      0.332561      0.289899
Ti       1.75809      9.40900      2.04146         0.248164     -0.938272     -0.325619
Ti       1.83160      9.40336     14.31928         0.358779     -0.924251     -0.023457
Ti      13.03174      9.38868      2.17832         0.038736     -0.660388     -0.927342
Ti      13.15339      9.38290     14.35347        -0.396648     -0.139256     -0.268967
Ti       1.82335      9.37336      6.13122        -0.111694     -0.213920      0.440431
Ti      13.04060      9.37511      6.30719         0.862783     -0.583576     -1.077762
Ti       1.87436      9.37838     10.25613        -0.444367     -0.116964      0.547934
Ti      13.15054      9.39501     10.28230        -0.685546     -1.133455      0.450753
Ti       5.66731      1.82241      2.02085        -0.687672      0.810486      0.180725
Ti       5.63483      1.96189     14.30932         0.335193     -0.488561      0.054361
Ti       5.47342     13.10598      2.13097         0.887397      1.135312     -0.512205
Ti       5.57029     13.10517     14.39707         0.250197      0.806733      0.221086
Ti       5.62636      1.86097      6.23224         0.491048     -1.103870     -0.532561
Ti       5.61966     13.08387      6.19988        -0.216755      0.400068     -0.345885
Ti       5.60497      1.81159     10.32051         0.416462     -0.275154      0.234579
Ti       5.58117     13.06580     10.33213        -0.431366      1.083596     -0.007706
Ti       5.62966      5.61803      2.08741        -0.012281     -0.190845     -0.191741
Ti       5.60648      5.70623     14.41117         0.281097     -0.035618     -0.559697
Ti       5.58600      5.60332      6.18849         0.273948      0.739171      0.025198
Ti       5.61880      5.62789     10.18820         0.095397      0.753392      0.227036
Ti       5.51573      9.43197      2.18012         0.774534     -0.088046     -1.091720
Ti       5.64502      9.44752     14.33198         0.025444     -1.237151      0.574755
Ti       5.67237      9.35235      6.16747        -0.091663      0.566792     -0.136051
Ti       5.62718      9.32641     10.29333        -0.188228     -0.352879      0.009840
Ti       9.35206      1.88515      2.14739         0.040549     -0.423969     -0.107303
Ti       9.38277      1.95343     14.35363        -0.065167     -1.069446     -0.323122
Ti       9.37251     13.22924      2.15165        -0.156028     -0.177157     -0.525896
Ti       9.34214     13.19054     14.47064         0.182379      0.119213     -0.543562
Ti       9.39016      1.89613      6.21880         0.102566     -0.522620     -0.482709
Ti       9.40607     13.21413      6.20091        -0.380347     -1.095076     -0.689021
Ti       9.30871      1.87970     10.23333         0.875051     -0.510963      0.358473
Ti       9.27484     13.12462     10.24122         0.569008      0.727826      0.122856
Ti       9.37935      5.66311      2.17570        -0.270942     -0.295208     -0.716402
Ti       9.38150      5.64043     14.33252        -0.012722     -0.050484      0.313246
Ti       9.29955      5.63091      6.17646        -0.182518      0.876698     -0.258423
Ti       9.35769      5.59393     10.18488         0.394117      0.001390      0.861176
Ti       9.30324      9.44717      2.19731        -0.238143     -0.091293     -0.824557
Ti       9.43950      9.41272     14.42067        -1.023129     -0.062896      0.000193
Ti       9.36736      9.44472      6.14782        -1.261795     -1.032690     -0.340424
Ti       9.37570      9.35249     10.38208         0.531948     -0.386472     -0.445658
O       2.01269      1.92166      0.25534        -0.413442     -0.420970      0.540466
O       1.83796      1.88629     12.58880         0.170084      0.084912      0.662433
O       1.66238     13.14858      0.18475         0.302088     -0.037800      1.204661
O       1.83788     13.10614     12.48875        -0.030959      0.064269      0.797232
O      13.07650      1.85406      0.18971         0.139187      0.161620      1.287724
O      13.08700      1.92064     12.45056         0.074237     -0.432536      1.630289
O      13.19176     13.24954      0.26703         0.287759     -0.355321     -0.010871
O      12.95876     13.15425     12.51422         0.188874     -0.198858     -0.028488
O       1.84440      1.89924      4.37581        -0.343155      0.127392      0.520371
O       1.82089     13.15153      4.34114         0.213249     -0.282812      0.925738
O      13.16980      1.90009      4.34701         0.232701      0.195460      0.503104
O      13.06530     13.16457      4.35238         0.003719     -0.337161      0.931907
O       1.82398      1.86631      8.46051         0.405947      0.304564     -0.582399
O       1.83367     13.18912      8.41199        -0.176761     -0.146949      0.597951
O      13.05993      1.93049      8.41097         0.198983     -0.183998      0.001220
O      13.09925     13.19114      8.42233         0.128428     -0.236271     -0.096046
O       1.76186      5.76150      0.20095         0.159130     -0.183394      0.809060
O       1.86274      5.57254     12.56365         0.121324      0.022769      0.629417
O      13.12844      5.68980      0.28469        -0.187206     -0.266923      0.541068
O      13.12583      5.71129     12.59528        -0.198042     -0.466424      0.180904
O       1.97702      5.57115      4.24141        -0.007858      0.031192      1.099959
O      13.08284      5.68258      4.36888         0.148426     -0.354889      0.577863
O       1.86778      5.67247      8.44545         0.111720     -0.114411      0.487553
O      13.14708      5.69273      8.40807         0.021196     -0.651050      0.159053
O       1.87459      9.30411      0.20634        -0.013574      0.280438      0.653537
O       1.88287      9.48036     12.47366        -0.364169     -0.102175      0.287112
O      12.98047      9.37730      0.34501         0.171196      0.067295      0.572428
O      13.10230      9.37173     12.49915         0.366538      0.300035      1.402661
O       1.75927      9.39741      4.30343         0.125228      0.237438      0.519636
O      13.16079      9.38676      4.40192        -0.224962      0.188035      0.919936
O       1.86194      9.27235      8.38702         0.363285      0.487323      0.498403
O      13.04344      9.39092      8.43272         0.189442      0.002684      0.214730
O       5.57935      1.83528      0.16183        -0.029060      0.134424      0.680869
O       5.57441      1.91368     12.44513         0.123666      0.406208      0.873399
O       5.53222     13.18121      0.26877         0.358108     -0.150303      0.754987
O       5.56363     13.08924     12.59058        -0.024217     -0.158814     -0.495487
O       5.66743      1.92289      4.31462         0.056801      0.027414      1.340997
O       5.46867     13.11876      4.38032         0.417027      0.052916      0.069592
O       5.59784      1.71922      8.45316         0.048829      0.596293     -0.094783
O       5.63096     13.17988      8.49113         0.061875     -0.023160      0.026469
O       5.67745      5.70470      0.16876         0.057650     -0.043273      1.207224
O       5.69451      5.72854     12.55407        -0.098446     -0.559439      0.839807
O       5.49898      5.50890      4.26451         0.527695      0.503897      0.832241
O       5.59393      5.65173      8.36115        -0.140838      0.100155      0.642849
O       5.53365      9.42959      0.31778        -0.157092      0.148276      0.174546
O       5.60898      9.41770     12.50232        -0.032422      0.176994      0.473538
O       5.64531      9.41574      4.31149        -0.219554      0.147300      0.806534
O       5.58864      9.31928      8.41001        -0.060000      0.156887      0.784816
O       9.33226      1.90252      0.35299         0.310898      0.086784     -0.814748
O       9.37429      1.85070     12.49772         0.170885      0.334590      0.901129
O       9.17191     13.24303      0.25973         0.561396     -0.195883      0.705421
O       9.41308     13.17190     12.59560        -0.260668     -0.091606      0.156325
O       9.24790      1.92372      4.39499         0.068311     -0.140121      0.386392
O       9.50820     13.16404      4.32817        -0.212804      0.137097      1.122249
O       9.36032      1.88563      8.41222        -0.025926      0.095272      0.217166
O       9.22579     13.11437      8.37995         0.344291      0.031182      1.175094
O       9.30971      5.60383      0.24827         0.348469     -0.028980      1.393524
O       9.28427      5.58989     12.50243         0.265847      0.102074      0.189696
O       9.28798      5.72202      4.30703         0.139083     -0.260930      1.202242
O       9.39530      5.65048      8.35479        -0.262142     -0.300455      0.832949
O       9.36423      9.45188      0.28643         0.106377      0.203125      0.488933
O       9.33119      9.43842     12.56621         0.132399      0.019292      0.317824
O       9.22232      9.34494      4.29927         0.201377      0.319589      1.309706
O       9.35703      9.38342      8.48271         0.093718      0.114075      1.216481
O       3.71594      1.96875      2.46414         1.169677      0.084746     -0.180462
O       3.81044      1.80908     14.62853        -0.726678      0.005971     -0.215932
O       3.65561     12.98090      2.39570         0.050196      0.019088     -0.214554
O       3.72127     13.23820     14.66219        -0.754168     -0.198999     -0.189758
O       0.02259      1.85174      2.33266        -0.837502      0.054234      0.042164
O       0.00596      1.95995     14.68133        -0.572624      0.047605     -0.034011
O      14.95531     13.28943      2.46860         0.793831     -0.265390     -0.299654
O      14.93629     12.99881     14.51656         0.009577      0.351226      0.078303
O       3.78774      2.09257      6.42323        -1.203940     -0.269014     -0.004301
O       3.71245     12.96726      6.50375         0.512272     -0.030626      0.075069
O      15.00888      1.76501      6.55330        -0.556160      0.086044     -0.369810
O      14.95595     13.21770      6.46646         0.694804      0.161698     -0.102219
O       3.71896      1.86306     10.53210         0.242642      0.415646     -0.033413
O       3.71798     13.11869     10.57306        -0.488524     -0.054981     -0.180812
O      15.00759      1.86697     10.51930        -1.038089     -0.155325      0.075595
O      14.91858     13.19337     10.58483         0.336995      0.042966     -0.093418
O       3.77269      5.66072      2.08429        -0.611939      0.074634      0.272150
O       3.74003      5.76957     14.73798         1.019500     -0.147135     -0.113651
O      14.96859      5.69869      2.49392         0.194241     -0.412788     -0.512287
O      14.97946      5.66914     14.61224         0.630507     -0.489476      0.223449
O       3.74574      5.41081      6.43944        -0.326435      0.239566      0.063500
O       0.01979      5.81777      6.37604        -0.371011     -0.069166      0.028176
O       3.77958      5.55987     10.62145        -0.328479      0.098119     -0.263150
O       0.01616      5.61376     10.56334        -0.403675      0.158524     -0.045861
O       3.65293      9.38676      2.42739        -0.315263      0.593530     -0.095657
O       3.72633      9.37308     14.57116         0.540248     -0.034295      0.115116
O      14.92640      9.25843      2.34978         0.029423      0.246463     -0.048009
O       0.01415      9.39036     14.70113        -1.037301      0.427678     -0.105755
O       3.69319      9.54738      6.38304         0.963347     -0.105671      0.054169
O       0.01430      9.22401      6.57271        -0.942612      0.533551     -0.499820
O       3.72665      9.39688     10.52143         0.435524      0.248798     -0.058328
O      14.97900      9.24774     10.43248         0.526936      0.281690      0.120709
O       7.45476      1.73237      2.32437         0.118293      0.052500      0.198781
O       7.49183      2.03058     14.53978         0.244601      0.176020      0.186661
O       7.52950     13.25208      2.51937        -1.920558     -0.125581     -0.350432
O       7.43847     13.12629     14.66391         0.091674     -0.377611     -0.098327
O       7.54145      1.69795      6.53776        -1.505274      0.121832     -0.022847
O       7.50963     13.33801      6.36549        -0.498202     -0.152254     -0.115368
O       7.48967      1.78660     10.55354        -0.601518      0.291887     -0.177067
O       7.42835     13.15572     10.67027         0.771759      0.042873     -0.215358
O       7.50166      5.77891      2.40835        -0.576242     -0.360156     -0.421648
O       7.52948      5.56069     14.72415        -0.513947      0.058527     -0.575595
O       7.42907      5.76610      6.51079         0.284406     -0.209456     -0.315165
O       7.51080      5.74660     10.45396        -0.302744     -0.156567     -0.156564
O       7.41173      9.37300      2.29009         0.315026      0.132998      0.338413
O       7.50553      9.54938     14.67677        -0.178031      0.169072     -0.174100
O       7.49668      9.33638      6.58392        -0.390097     -0.161563     -0.413315
O       7.46448      9.21188     10.65667         0.451170      0.613679     -0.554449
O      11.20703      1.92331      2.51673         1.198033      0.319320     -0.394356
O      11.31961      1.76638     14.65594        -1.633017      0.274571     -0.204750
O      11.25808     13.08723      2.20209         0.199478     -0.085695      0.316227
O      11.21216     13.18371     14.79738         0.244535      0.506897     -0.110036
O      11.24393      2.06514      6.39565         0.439976      0.227041      0.019878
O      11.25344     12.99454      6.51015         0.127367      0.087218      0.163526
O      11.21652      1.96478     10.48579        -0.281570     -0.051086      0.190206
O      11.16720     12.98799     10.44016         0.250710      0.286008     -0.113648
O      11.23276      5.61881      2.51198        -0.024312     -0.237592     -0.603195
O      11.18876      5.72225     14.71220         1.020486      0.075947      0.001422
O      11.23621      5.56762      6.40234        -0.613884     -0.233323      0.068695
O      11.30463      5.54948     10.48770        -1.725363     -0.224368      0.200892
O      11.15433      9.45853      2.51476         0.961664      0.169647     -0.142273
O      11.23086      9.31018     14.70749         0.580504      0.317139     -0.129060
O      11.21866      9.44837      6.49225        -0.604211      0.240260     -0.288748
O      11.27598      9.45368     10.63608        -1.122248      0.108561     -0.437485
O       1.91836      3.80070      2.24106        -0.715094     -0.674681      0.115309
O       1.95592      3.72715     14.80876        -0.104352      1.328957     -0.314781
O       1.97595     14.99444      2.39316        -0.168859      0.410938     -0.228020
O       1.79651      0.02893     14.66477        -0.210273     -0.693697     -0.113957
O      13.12968      3.73987      2.34550         0.034428      0.119952      0.086115
O      13.04878      3.81278     14.72780         0.048023     -1.113248     -0.300748
O      13.05258      0.03240      2.42774         0.087484      0.153477     -0.183916
O      13.18118     14.98500     14.66409         0.339847      0.350164     -0.460225
O       1.66456      3.79729      6.53054         0.105069     -0.957414     -0.178807
O       1.97094      0.04362      6.49446         0.032882     -0.507527     -0.320836
O      13.25433      3.77486      6.41983         0.251731      0.829782      0.405553
O      12.96046      0.07763      6.40720         0.170159     -1.145976      0.203245
O       1.83280      3.74874     10.59006         0.146936     -0.115823     -0.353944
O       1.76202     15.00114     10.59623         0.551099      0.088409     -0.128184
O      13.14677      3.71147     10.59127         0.094848      0.753252     -0.414251
O      12.96214     14.99417     10.53242         0.197801     -0.100295     -0.167370
O       1.80917      7.49887      2.43907         0.497036      0.326686     -0.303348
O       1.83840      7.50490     14.51880        -0.204038      0.523085      0.024011
O      13.00827      7.49091      2.43761        -0.094330      0.301826     -0.095570
O      13.15350      7.56046     14.74031        -0.166053     -0.253141     -0.176241
O       2.03533      7.49880      6.37160         0.102889     -0.021498     -0.345091
O      12.98731      7.50053      6.49581         0.013971      0.581231     -0.020586
O       1.87905      7.50782     10.59239         0.330832     -0.258637      0.038775
O      13.00868      7.48004     10.61208         0.324473      0.015218     -0.433888
O       1.66141     11.23486      2.30361         0.032282      0.636033      0.146114
O       1.85472     11.27828     14.55733         0.389907     -0.182034      0.365210
O      13.18399     11.27553      2.37632         0.105983     -0.012777      0.149740
O      13.03459     11.26854     14.77836        -0.017030     -0.353896     -0.416599
O       1.76627     11.27225      6.48152        -0.503669     -0.607055     -0.178046
O      13.17337     11.23312      6.51362         0.339174      0.402627     -0.226540
O       1.77273     11.24247     10.43974        -0.138458      0.327089     -0.004348
O      13.21476     11.26755     10.51956        -0.144570     -0.414944      0.040522
O       5.71490      3.76607      2.14718        -0.076529     -0.292291      0.399218
O       5.54725      3.82640     14.66264        -0.107945     -0.362967     -0.281606
O       5.39945      0.03071      2.34829         0.163842     -1.104146      0.067645
O       5.67810      0.02810     14.55031         0.001433      0.146130      0.081689
O       5.68048      3.72695      6.51097         0.871394     -0.055663     -0.139109
O       5.41124     14.95590      6.40054         0.103340      1.151801      0.199737
O       5.63639      3.79395     10.45269         0.265252     -1.162003      0.193718
O       5.51973      0.03221     10.67328         0.233336     -1.304017     -0.374682
O       5.48750      7.54601      2.31869         0.335486     -0.465719      0.307812
O       5.81071      7.57346     14.69098        -0.429236      0.066125     -0.390057
O       5.49852      7.51311      6.35856        -0.370169     -0.230425     -0.097891
O       5.50572      7.47457     10.64284         0.144674      0.494623     -0.704414
O       5.61727     11.32125      2.42838         0.240143     -0.793302     -0.079675
O       5.51822     11.26329     14.71267         0.020422      0.132599     -0.099634
O       5.75948     11.25327      6.48489        -0.170125     -0.228832      0.153553
O       5.64164     11.24331     10.50255         0.082588     -0.734711      0.066663
O       9.30585      3.74403      2.44705        -0.314792      0.940132      0.032926
O       9.49008      3.77470     14.56185         0.081200     -0.264111      0.521321
O       9.49441      0.02744      2.43674        -0.088751     -0.025918      0.079757
O       9.20083      0.06950     14.68087         0.408028      0.120405      0.044160
O       9.15447      3.78321      6.38983         0.050271     -0.073011      0.143827
O       9.54827     15.00442      6.48932         0.149136      0.705225     -0.024294
O       9.21580      3.73920     10.49853         0.226635      0.591349     -0.036715
O       9.36766     14.99747     10.57531         0.241902     -0.389673     -0.447250
O       9.39367      7.55400      2.32448         0.170511     -0.320989     -0.088341
O       9.29176      7.51993     14.68369        -0.328273      0.313234     -0.253958
O       9.35336      7.55356      6.55531         0.431901     -0.446906     -0.482096
O       9.42223      7.47393     10.63255         0.354433     -0.006413     -0.547124
O       9.31413     11.34780      2.47287        -0.157900     -0.890939     -0.364064
O       9.44187     11.35553     14.66567        -0.158976     -1.414901      0.167648
O       9.24008     11.27652      6.47852         0.085335      0.003041     -0.102382
O       9.32331     11.25372     10.54795        -0.638714     -0.176953      0.085424
