  # total energy = -7867.55123246 
CRSYTAL
PRIMVEC
    15.010000000000000    0.0000000000000000    0.0000000000000000
     0.0000000000000000   15.010000000000000    0.0000000000000000
     0.0000000000000000    0.0000000000000000    16.400000000000000
PRESSURE
18.8145 19.0423 11.1139 0.011516 0.030496 -0.056012
PRIMCOORD
320 1
Pb       3.72282      3.85968      4.07046         0.112018     -0.938442      0.723008
Pb       3.80280      3.67848      0.08700         0.120977      0.548540     -0.534293
Pb       3.67584      0.01670      4.05601         0.418867     -0.172967      0.308456
Pb       3.61432     14.95995      0.02562         0.440510     -0.310220     -0.548082
Pb       0.02472      3.65432      4.01718        -0.347132      0.645396      0.624504
Pb       0.09941      3.74826      0.02123        -1.040208      0.044406     -0.245758
Pb       0.08155     14.97969      3.95904        -0.386097     -0.848327      0.991141
Pb      14.93131     14.97199      0.04363         0.518631      0.065855     -0.075966
Pb       3.89967      3.75343      8.22224        -1.208493     -0.223168      0.099518
Pb       3.72980     14.90663      8.20517        -0.085771      0.510401     -0.050747
Pb       0.05078      3.73038      8.22504        -0.193949     -0.241489      0.174602
Pb       0.04378      0.01982      8.23949        -0.313363      0.348184     -0.263115
Pb       3.63294      3.79548     12.30735         0.627840     -0.354695      0.337686
Pb       3.78950      0.01610     12.27902        -0.248336     -0.530815      0.843288
Pb      14.98688      3.63215     12.32427        -0.073092      0.235204      0.107715
Pb      14.95917     14.98513     12.36994         0.217541      0.031747     -0.300107
Pb       3.68675      7.43904      3.99900         0.035398      0.653111      0.677498
Pb       3.69291      7.38499      0.01939         0.685156      0.677098      0.047430
Pb      14.92366      7.42947      4.08587         0.022167      0.096588      0.109333
Pb       0.02721      7.50247     16.38527        -0.414822      0.170309      0.568648
Pb       3.71353      7.44271      8.14789        -0.104394      0.533967      0.117038
Pb      14.93360      7.44349      8.23519         0.169536      0.107152     -0.594670
Pb       3.78943      7.60188     12.28422        -0.007010     -0.325121      0.475554
Pb       0.09159      7.47223     12.38861        -0.319743     -0.122743     -0.210248
Pb       3.69476     11.35801      4.06173         0.313805     -0.573026      0.697938
Pb       3.74236     11.24990     16.38672        -0.306959     -0.346288     -0.182376
Pb      14.97717     11.31970      4.07285         0.028420     -0.311542      0.043193
Pb      14.95874     11.18778     16.37675         0.250972      0.015252      0.234034
Pb       3.80094     11.22077      8.20649        -0.286729     -0.498415     -0.641564
Pb      14.91564     11.24146      8.33000         0.217894     -0.252971     -0.593215
Pb       3.76619     11.33170     12.30352        -0.346399     -0.314271      0.235976
Pb       0.00015     11.23083     12.31925         0.011306      0.248500     -0.530631
Pb       7.51420      3.58761      4.08550        -0.071594      0.509769      0.397066
Pb       7.47133      3.77412     16.33083        -0.017596      0.352975      0.904194
Pb       7.44881     14.98428      4.00254        -0.411704      0.273853      1.307047
Pb       7.44398      0.04375      0.05500        -0.288059     -0.513181     -0.145317
Pb       7.52512      3.77172      8.26151        -0.292608     -0.063521     -0.275769
Pb       7.58087     14.88993      8.24114        -0.990638      0.790062     -0.044818
Pb       7.54498      3.67800     12.22132        -0.831667     -0.069436      0.638676
Pb       7.51246     14.96401     12.36322        -0.354679      0.021150     -0.564224
Pb       7.45159      7.52254      4.02940         0.265521      0.285987      0.395397
Pb       7.46521      7.55054      0.07013        -0.136126     -0.243559     -0.045147
Pb       7.43346      7.59752      8.26561         0.174539     -0.530019     -0.354818
Pb       7.47880      7.36517     12.29735         0.095317      0.244026      0.229520
Pb       7.52588     11.33750      4.04926         0.007893     -0.331336      1.212089
Pb       7.54309     11.21592      0.05087        -0.332080      0.113972      0.104330
Pb       7.47975     11.24898      8.29124        -0.158764     -0.321877     -1.122741
Pb       7.49913     11.15889     12.40205        -0.026165      0.289750     -0.453652
Pb      11.27124      3.71333      4.02790        -0.141189      0.352542      0.735251
Pb      11.14409      3.66132     16.35455         0.623713      0.431476      0.392064
Pb      11.22266      0.03221      4.06794         0.332802     -0.122361      0.694990
Pb      11.08015     14.89039      0.05983         0.951210      0.839665      0.217985
Pb      11.16612      3.75838      8.12467         0.438999     -0.098944     -0.026916
Pb      11.23281     15.00479      8.21923         0.426479      0.135883     -0.339726
Pb      11.31554      3.71184     12.36093        -0.338840     -0.073390      0.830420
Pb      11.23472      0.02713     12.26517         0.110503     -0.628630      0.022633
Pb      11.13255      7.43651      4.09086         0.723993      0.001737      0.048203
Pb      11.22649      7.52971     16.35414        -0.194556     -0.252622      0.773452
Pb      11.17352      7.51435      8.26264         0.189469     -0.508363     -0.878236
Pb      11.33072      7.53369     12.32069        -0.599786     -0.402526      0.851524
Pb      11.31445     11.25418      4.13447        -0.616848     -0.047839     -0.135031
Pb      11.27709     11.24480      0.06989        -0.281373     -0.304267      0.163979
Pb      11.17889     11.14540      8.20632         0.437138      0.742874      0.008213
Pb      11.25837     11.28627     12.31707         0.487174      0.255952     -0.292338
Ti       1.83224      1.92011      2.05820         0.819934     -1.253472      0.409441
Ti       1.87131      1.88623     14.44627        -0.318779     -1.008824      0.197604
Ti       1.88009     13.04408      2.07536        -0.792510      0.917354     -0.569924
Ti       1.83529     13.12700     14.37342         0.569322     -0.015312      0.980445
Ti      13.12639      1.81943      2.13005        -0.500636      0.383072     -0.505682
Ti      13.12679      1.88086     14.50986         0.107393     -0.773709     -0.632225
Ti      13.04415     13.07847      2.09613         1.121193     -0.267149      1.292524
Ti      13.14650     13.13496     14.49292        -0.136047      0.177126     -1.452103
Ti       1.87899      1.86439      6.16202         0.461908      0.270890      0.784575
Ti       1.77924     13.11063      6.17675         0.412387      0.332646      1.028502
Ti      13.11180      1.86508      6.23150        -0.228354      0.023618      0.470618
Ti      13.08354     13.16608      6.22387         0.135414     -0.480185     -0.584754
Ti       1.86945      1.83758     10.36313        -0.691615     -0.293746     -0.383755
Ti       1.88794     13.10844     10.22703        -0.232304      0.204468      2.223403
Ti      13.03064      1.86845     10.37215         2.024012      0.329083     -0.440724
Ti      13.16050     13.15072     10.28458        -0.497227     -0.448305      0.353101
Ti       1.90365      5.62312      2.12348        -1.676286      0.346588      0.063879
Ti       1.85699      5.59552     14.48202         0.616249      0.148762     -0.345689
Ti      13.11142      5.55189      2.06822        -0.249347      1.230212      0.034672
Ti      13.11419      5.64789     14.55311        -0.368556     -1.571484      0.064439
Ti       1.84522      5.61282      6.24000         0.435417     -0.008254      0.396803
Ti      13.06831      5.59733      6.23952        -0.299852      0.396483     -1.216212
Ti       1.85941      5.58750     10.36334        -0.168900     -0.118223     -0.552291
Ti      13.06318      5.58138     10.38671         1.354795      0.009870     -0.947036
Ti       1.79981      9.34349      2.13389        -0.308003      0.297822      0.309690
Ti       1.82251      9.33333     14.44899         1.002452      1.304114     -0.152506
Ti      13.07864      9.34247      2.15333         0.446772     -0.651146     -0.647416
Ti      13.05744      9.31380     14.42234         0.893404      1.203748      0.668479
Ti       1.85941      9.43141      6.18216        -0.145836     -0.776700     -0.007949
Ti      13.09561      9.37574      6.16740         0.157712      0.185688      2.128130
Ti       1.92480      9.27345     10.32060        -0.389780      1.947295     -0.349617
Ti      13.14421      9.29501     10.32178         0.144274      1.280903      0.466929
Ti       5.56812      1.91131      2.14711         0.473678     -1.376915      0.991861
Ti       5.62795      1.84960     14.47168        -0.774233     -0.282573     -0.535404
Ti       5.58073     13.13157      2.08614         0.575117     -0.455929      0.168739
Ti       5.63083     13.04074     14.43637        -0.940706      1.101282      0.793752
Ti       5.51953      1.81531      6.24906         0.795143      0.216173     -0.118649
Ti       5.57699     13.13769      6.26088         0.366290     -0.839708     -1.125472
Ti       5.52084      1.80348     10.33358         2.083352     -0.477349      1.492832
Ti       5.63859     13.07087     10.29742        -0.091868      0.378949      1.798292
Ti       5.64509      5.61918      2.21512         0.401812     -0.028597     -1.783711
Ti       5.59646      5.59984     14.40783         0.233367      0.406589      0.126871
Ti       5.59669      5.64736      6.17800         0.349999     -0.971425     -0.209493
Ti       5.55602      5.53503     10.33675         1.661885      0.608321      0.701875
Ti       5.54289      9.39972      2.16326        -0.093329      0.175081     -1.202621
Ti       5.61794      9.29742     14.49099        -0.478742     -0.048281      0.876730
Ti       5.64759      9.30466      6.15387        -0.386222      1.859410      1.463296
Ti       5.70388      9.36771     10.39357        -1.072532     -0.428759     -1.231710
Ti       9.36764      1.85892      2.12923        -0.317436      0.868510      0.637668
Ti       9.32582      1.85883     14.44016         0.810702      0.621080      0.052422
Ti       9.33496     13.18251      2.23995         0.942827     -1.584094     -0.255308
Ti       9.40697     13.15611     14.44208        -0.614908     -0.519583      0.230455
Ti       9.25941      1.87021      6.24568         0.839281      0.192885     -0.941311
Ti       9.34304     13.21682      6.24918         0.005442     -1.360128     -0.469387
Ti       9.33198      1.81392     10.27541        -1.079119     -0.031185      0.345641
Ti       9.35120     13.03173     10.26286         0.720921      1.522849      0.770587
Ti       9.32118      5.60689      2.09819         0.306046     -0.110540     -0.467444
Ti       9.34133      5.67666     14.51221         0.583692      0.345847      0.374633
Ti       9.28014      5.60154      6.12078         0.856932      0.471520      0.727810
Ti       9.42210      5.57990     10.39372        -0.838838      0.646547      0.611361
Ti       9.27488      9.35269      2.13191         1.058833      1.767738      0.596051
Ti       9.37053      9.42650     14.39552        -0.435236     -0.553420      0.128019
Ti       9.36901      9.40328      6.22648        -0.667599     -0.111964     -1.335311
Ti       9.43851      9.34206     10.33135        -0.452795      0.144374      1.258111
O       1.73517      1.98730      0.26910         0.578380     -0.602695      0.588549
O       1.76958      1.92874     12.66893         0.296792     -0.024026     -0.860235
O       1.82678     13.05386      0.30603         0.305118      0.261286     -0.291726
O       1.86996     13.21363     12.61883        -0.225533     -0.624198     -0.324651
O      13.27198      1.85661      0.35545        -0.366573      0.163797      0.234324
O      13.10995      1.92888     12.60161        -0.103065     -0.407040      0.387746
O      12.99506     13.06948      0.33862         0.431557      0.123937     -1.255895
O      13.14402     13.23627     12.61596        -0.232477     -0.290331      0.851172
O       1.96683      1.86265      4.37090        -0.361679      0.247816     -0.402954
O       1.91362     13.11937      4.40842        -0.096862     -0.021996     -1.288574
O      13.05729      1.80586      4.45137         0.520681      0.243166     -0.567943
O      13.08448     13.09666      4.38731        -0.053263      0.191764     -0.082518
O       1.91831      1.79599      8.56492        -0.199624      0.077223      0.118642
O       1.79722     13.06682      8.45742        -0.059770      0.397309     -0.461636
O      13.05850      1.96571      8.60538         0.161540     -0.273959     -1.624785
O      13.17712     13.12378      8.47803        -0.067743      0.265645      0.302476
O       1.97288      5.59993      0.33950        -0.564768      0.033412     -0.476769
O       1.95509      5.64086     12.68134        -0.317315     -0.033715     -0.309178
O      13.08411      5.53221      0.26915         0.127200      0.341331      0.852206
O      13.06711      5.67612     12.77766         0.079214     -0.472097     -1.376701
O       1.85145      5.56425      4.44403         0.042821     -0.074274     -0.407444
O      13.10608      5.69854      4.35726        -0.053203     -0.757101      1.266828
O       1.92619      5.54595      8.56434        -0.316968      0.456410     -0.345788
O      13.05895      5.65812      8.56135         0.069488     -0.140739      0.285248
O       1.79934      9.36966      0.32326        -0.096567     -0.203915      0.291152
O       1.91915      9.25255     12.62708        -0.480140      0.379028     -0.046453
O      13.18852      9.43248      0.33582        -0.347100     -0.498895     -0.286024
O      13.05476      9.30915     12.65023         0.502806      0.315829     -0.640258
O       1.76000      9.46396      4.38184         0.642733     -0.422364      0.597488
O      13.09155      9.35092      4.43173        -0.246392      0.194019     -0.928437
O       1.84711      9.46933      8.51222        -0.015254     -0.567013      0.878803
O      13.10585      9.39413      8.53286         0.193822     -0.297443      0.133596
O       5.69215      1.95568      0.40080        -0.289157     -0.399090     -1.080904
O       5.70425      1.80150     12.69469         0.018955      0.273998     -0.161126
O       5.51343     13.10368      0.30630         0.314745     -0.054974     -0.045806
O       5.53140     13.16665     12.65827         0.638194     -0.497848     -0.040025
O       5.46917      1.73719      4.45853         0.189939      0.534623     -0.188984
O       5.46998     13.08602      4.43239         0.518802      0.412596      0.284642
O       5.55266      1.78925      8.62131         0.033368      0.322510     -2.307800
O       5.65419     13.05471      8.54269        -0.117469     -0.030395     -0.889283
O       5.65223      5.54548      0.37057        -0.189609      0.044782      1.024208
O       5.68754      5.59792     12.59221        -0.420836      0.195845      0.270301
O       5.60590      5.62976      4.34991        -0.219623      0.237738      0.573293
O       5.58325      5.55799      8.55292         0.133520      0.424130     -0.684251
O       5.58001      9.47983      0.32699         0.153752     -0.162347      0.466897
O       5.70914      9.26312     12.71093        -0.083732      0.231814     -0.872417
O       5.65503      9.33457      4.42080        -0.258916     -0.238891     -1.549944
O       5.77732      9.32816      8.52357        -0.523506      0.304014      0.848163
O       9.35040      1.80338      0.36281        -0.041669      0.156831     -0.662042
O       9.34321      1.89163     12.63027         0.095700     -0.539399      0.348701
O       9.52567     13.19210      0.45139        -0.700562     -0.335808     -1.156524
O       9.47151     13.10098     12.65079        -0.409774      0.013699      0.483300
O       9.24272      1.93779      4.39545         0.775907     -0.432752      0.560230
O       9.25928     13.23519      4.43377         0.552258     -0.139724     -0.154500
O       9.24144      1.93553      8.46773         0.464150     -0.426363      0.664826
O       9.31385     13.11383      8.46840         0.112861      0.309677     -0.060137
O       9.29617      5.77318      0.29327         0.085458     -0.633754      0.506792
O       9.49301      5.74341     12.75652        -0.413355     -0.339181     -1.193024
O       9.45225      5.47721      4.35014        -0.667827      0.644287      0.148856
O       9.48041      5.64995      8.65028        -0.313971     -0.265946     -0.966630
O       9.23994      9.47910      0.34494         0.711140     -0.312955      0.173394
O       9.40249      9.37599     12.58199        -0.187305      0.450386      0.212177
O       9.24497      9.42936      4.38768         0.653701     -0.303897      0.383227
O       9.26472      9.33138      8.55319         0.222431      0.024503     -0.392416
O       3.70561      1.99719      2.35163         0.083451     -0.263006     -0.179037
O       3.74718      1.86912     14.73000         0.366364      0.305909      0.384612
O       3.74162     13.03206      2.34136        -0.069516     -0.388279      0.219190
O       3.69814     13.13024     14.79127         0.594180     -0.210631     -0.173768
O      15.00875      1.73120      2.52852        -0.088796      1.001467     -0.543492
O      14.99492      1.88450     14.72339         0.593454      0.434406     -0.001125
O       0.00866     13.17953      2.36490        -0.943035      0.115382      0.255874
O      14.99300     13.14463     14.76445         0.184630     -0.493560     -0.011163
O       3.69113      1.65420      6.62553         0.187176      0.336781     -0.140677
O       3.73034     13.18087      6.56498        -0.871151     -0.161428      0.179177
O       0.06870      1.96009      6.48703        -1.755470      0.605111      0.313184
O      14.93208     12.99584      6.38403         0.584576     -0.080506      0.453304
O       3.77281      1.92072     10.77598        -1.522234      0.039013      0.017870
O       3.74333     13.05343     10.75574         0.101941     -0.256615     -1.114710
O      15.00112      1.80085     10.51791         0.419997      0.038083      0.555319
O       0.01379     13.17154     10.68876         0.172653      0.441014     -0.471844
O       3.73654      5.57644      2.37290         0.464207      0.037638      0.504582
O       3.73941      5.64178     14.80052        -0.140747     -0.098455     -0.326419
O      14.99920      5.67957      2.30801        -0.165389     -0.441717      0.287143
O      14.98132      5.58479     14.79609         0.874614     -0.029342     -0.141287
O       3.76266      5.82187      6.49269        -0.551979     -0.720115     -0.073818
O      14.99800      5.57910      6.60124        -0.419173     -0.266685     -0.148719
O       3.78046      5.48779     10.53266        -1.129136      0.363376      0.812315
O       0.03191      5.72616     10.66398        -0.842513      0.142000      0.007203
O       3.70092      9.45434      2.40634        -0.458829     -0.252521      0.294728
O       3.69950      9.26120     14.77677         0.600064      0.277275     -0.220260
O      14.99022      9.25237      2.50097        -0.329634      0.194308     -0.260094
O      14.97374      9.29265     14.74581        -0.500023      0.385595     -0.317655
O       3.71930      9.40574      6.64290         0.472481     -0.474165     -0.577093
O      14.95386      9.45455      6.53485        -0.527453     -0.013914     -0.019685
O       3.78571      9.45548     10.70966        -0.453477      0.014402     -0.390305
O      15.00098      9.30837     10.64833         0.515490     -0.405909      0.055525
O       7.49855      1.79576      2.54138        -0.805688     -0.456376     -0.755769
O       7.48123      1.88261     14.88802         0.601175      0.017254     -0.689602
O       7.51051     13.32620      2.37326        -1.269706     -0.553429     -0.183221
O       7.44290     13.15055     14.83595         1.562668     -0.245793     -0.451923
O       7.43065      1.94126      6.52424        -0.946575     -0.028647      0.179131
O       7.45816     13.21131      6.58004         0.105640     -0.397123     -0.093211
O       7.45065      1.70362     10.66529         0.337457      0.586780     -0.001175
O       7.52156     12.99618     10.72290        -0.726572      0.696319     -0.172068
O       7.48373      5.61438      2.49985         0.155747      0.777009     -0.034913
O       7.48695      5.63306     14.74220         0.133630      0.185231     -0.286881
O       7.45246      5.59929      6.63798         0.150758      0.055760     -0.425530
O       7.49738      5.71399     10.61454         0.768031     -0.127423      0.028901
O       7.41539      9.28231      2.33850         0.955655     -0.339137      0.450515
O       7.52021      9.34921     14.79922        -0.647671      0.425715     -0.405970
O       7.54416      9.36434      6.46309        -1.439564     -0.260126      0.555137
O       7.51766      9.34058     10.63845         1.296092     -0.173107      0.345652
O      11.23250      1.97097      2.49601         0.394556     -0.266037     -0.575343
O      11.27243      1.77146     14.88034        -0.964125     -0.023200     -0.755104
O      11.24438     12.94484      2.47279         0.005355      0.460567      0.207380
O      11.27883     13.23504     14.73348        -0.836567     -0.038251     -0.126584
O      11.18467      1.82364      6.46887         0.633037     -0.035082      0.354445
O      11.23006     13.29450      6.50683        -0.948278      0.149163      0.196236
O      11.21205      1.82807     10.54904        -1.269149      0.551288      0.478488
O      11.23121     13.14535     10.57175         0.477689     -0.012500      0.125091
O      11.16094      5.49872      2.35684         1.128885      0.110989      0.020541
O      11.23466      5.63211     14.89185        -0.165674      0.033422     -0.295846
O      11.17217      5.67120      6.49101         0.197580     -0.605957      0.181829
O      11.27210      5.33925     10.75611        -0.273041      0.739424     -0.406585
O      11.25092      9.51889      2.36796        -1.244263     -0.131791      0.230210
O      11.21212      9.39780     14.66259         0.486153     -0.199598      0.543187
O      11.17370      9.38812      6.68784         1.176211     -0.410329     -0.592516
O      11.29328      9.57453     10.60857        -0.259327     -0.477867     -0.111216
O       1.90169      3.77122      2.45010        -1.003491     -0.512308     -0.100576
O       1.90388      3.72400     14.76280        -0.042350      1.191116     -0.078023
O       1.95599     14.99527      2.28018         0.000930      0.585258      0.249709
O       1.89351      0.00368     14.71809        -0.319057     -0.084109      0.401175
O      13.20309      3.72574      2.41406         0.103767     -0.463082      0.330362
O      13.08226      3.66146     14.78645        -0.108860      1.770384     -0.091962
O      12.99908     14.98094      2.29673         0.074739     -0.234812      0.546892
O      13.35582      0.00649     14.77581        -1.259861     -0.582691     -0.231777
O       2.13790      3.74176      6.56381        -0.750029      0.045439     -0.379047
O       1.65667     15.00247      6.42040         0.473015     -0.465065      0.341135
O      13.02520      3.75053      6.55245         0.299905     -0.131049     -0.121377
O      13.16141      0.02158      6.51716         0.317726      0.288320      0.598289
O       1.84509      3.74647     10.67435        -0.090670     -0.421914      0.207076
O       1.99908     14.99262     10.72359        -0.394426     -0.059466     -0.789512
O      13.31874      3.76724     10.62588        -0.456026     -0.428347      0.373326
O      13.11119      0.02669     10.50964        -0.139245     -0.834363      0.515594
O       1.78960      7.44915      2.57022         1.021063      0.522977     -0.632960
O       1.80754      7.50519     14.75761        -0.026683     -1.363032      0.179399
O      13.00736      7.48649      2.42868        -0.071886     -0.893157     -0.153247
O      13.14296      7.47623     14.77268        -0.277629      0.659319      0.288779
O       1.79276      7.48630      6.49906        -0.041247      0.667514      0.300856
O      13.01876      7.45083      6.53501         0.639892      1.454887      0.110567
O       2.01082      7.45484     10.66760        -0.096126      0.466517     -0.295414
O      13.00874      7.45267     10.68203        -0.010747      0.496897     -0.311764
O       1.77989     11.23625      2.42112        -0.068954     -0.519712     -0.017032
O       1.82015     11.23324     14.73632         0.071590     -0.189135     -0.437958
O      13.22932     11.16902      2.37595         0.138365      1.799851      0.496117
O      13.08883     11.23634     14.73862         0.157029      0.095566     -0.334734
O       1.93400     11.26993      6.44409        -0.080743     -0.084693      0.294388
O      12.85770     11.33291      6.58402         0.703423     -1.809990     -0.563260
O       1.78529     11.29268     10.61301         0.114957     -1.221330      0.226490
O      13.24193     11.27985     10.64810        -0.103568     -0.560799     -0.000018
O       5.74416      3.70481      2.47757        -0.647213      0.656537      0.043241
O       5.63253      3.82007     14.85529        -0.213670     -1.643734     -0.587054
O       5.48896     14.94685      2.47191         0.116368      1.177410     -0.503064
O       5.61787     15.00209     14.73391         0.054329      0.029324      0.424447
O       5.44063      3.76237      6.49671         0.273172     -0.386362     -0.161677
O       5.56417     14.99495      6.60502         0.606999     -0.108299      0.224293
O       5.63703      3.67126     10.65288         0.636358      0.656721     -0.078290
O       5.52197     14.89183     10.61635         0.386251      0.754495      0.042378
O       5.53177      7.49906      2.34578         0.055200     -0.134797      0.455909
O       5.59541      7.43198     14.94681         0.279372      0.573544     -0.726810
O       5.54672      7.49817      6.46617         0.858993     -0.198688      0.470179
O       5.57452      7.52844     10.66442         0.028457     -1.047516     -0.235197
O       5.81561     11.22204      2.51974        -0.919324      1.160508     -0.708044
O       5.59729     11.17958     14.67787        -0.017909      0.392523     -0.082313
O       5.62654     11.22262      6.48131        -0.078961      0.166631      0.482340
O       5.69087     11.22273     10.70006        -0.182739     -0.079206      0.279378
O       9.20508      3.73596      2.34845         0.326958      0.106809     -0.110239
O       9.42092      3.73542     14.66904        -0.103641      0.183297      0.335898
O       9.46444      0.00724      2.41344         0.351403      0.586288      0.331372
O       9.33439      0.02655     14.79808        -0.258073     -1.024086     -0.343861
O       9.34118      3.71215      6.53717        -0.017265      1.570500      0.249042
O       9.28152      0.03994      6.51986         0.026611     -0.066509      0.557748
O       9.23760      3.71259     10.69785         0.491638     -0.337485     -0.573368
O       9.29124     14.96323     10.64955         0.549278      0.129401     -0.242022
O       9.45572      7.54673      2.46087        -0.437983     -1.144184     -0.178643
O       9.36346      7.60491     14.86565         0.123576     -0.809964     -0.564570
O       9.38331      7.48833      6.45921        -0.317437     -0.412964      0.038259
O       9.64777      7.49671     10.67968        -0.603892     -0.162742     -0.529043
O       9.26064     11.31061      2.48089        -0.245129     -0.942393     -0.244888
O       9.41126     11.28378     14.86381        -0.235520      0.572032     -0.712704
O       9.34964     11.30584      6.49432         0.226040     -0.148909      0.251352
O       9.37133     11.26695     10.56828        -0.110287     -1.595522      0.452931
