  # total energy = -7865.64424672 
CRSYTAL
PRIMVEC
    15.010000000000000    0.0000000000000000    0.0000000000000000
     0.0000000000000000   15.010000000000000    0.0000000000000000
     0.0000000000000000    0.0000000000000000    16.400000000000000
PRESSURE
17.5516 17.4595 10.2496 0.079125 0.223514 -0.078353
PRIMCOORD
320 1
Pb       3.89927      3.76909      4.28367        -1.193681     -0.229031     -1.103445
Pb       3.68803      3.74820      0.00841         0.127019     -0.108297      0.207737
Pb       3.67834      0.02568      4.15431         0.112313     -0.171206     -0.758182
Pb       3.77881     14.91804      0.00337        -0.581596     -0.131749      0.338022
Pb      14.92796      3.73808      4.12910         0.651573     -0.004952     -0.524707
Pb      14.95598      3.61816     16.35911         0.347871      0.081601      0.159637
Pb      14.94754      0.02223      4.23582         0.477245     -0.235059     -1.013241
Pb      14.97487     14.88723      0.12566         0.407958      0.688812     -0.270485
Pb       3.55955      3.77055      8.24894         1.020002      0.400353      0.009512
Pb       3.62773     14.99867      8.11155         0.645117      0.946441      0.950954
Pb      14.87595      3.82703      8.33643        -0.003545     -0.461684     -0.290213
Pb      14.87030     14.95641      8.16582         0.072836      0.427840      0.037994
Pb       3.60287      3.72127     12.32960         0.458950      0.200633     -0.174645
Pb       3.67254     14.93059     12.40066        -0.144534      0.320900     -0.755978
Pb      14.94802      3.75045     12.42441        -0.063732     -0.517055     -0.214270
Pb      14.99482     14.95749     12.36804         0.030736      0.285969     -0.461459
Pb       3.85057      7.42228      4.16910        -0.532269      0.077911     -0.483711
Pb       3.75651      7.45311      0.09700        -0.124197      0.280221     -0.729858
Pb       0.02732      7.50695      4.17442         0.734395     -0.495402     -0.447525
Pb      14.94675      7.49689      0.01372         0.819795      0.216276      0.023045
Pb       3.76456      7.50363      8.10077        -0.191144     -0.301561      0.621905
Pb      14.99965      7.52667      8.35139         0.355549     -0.082994     -0.879422
Pb       3.66821      7.56496     12.29227         0.091193     -0.313798     -0.864266
Pb      14.90530      7.42202     12.34541         1.136941     -0.002803      0.027759
Pb       3.78717     11.17286      4.37326         0.594064      0.170345     -1.303314
Pb       3.76932     11.14024     16.33283         0.042900      0.537467      0.401643
Pb       0.13980     11.17648      4.12948        -0.242537      0.278669     -0.390746
Pb      15.00624     11.32758      0.06950         0.581651     -0.569834      0.181180
Pb       3.82240     11.27885      8.16563         0.032968     -0.578542      0.354278
Pb       0.05054     11.26836      8.20993        -0.420381      0.116469     -0.126544
Pb       3.76602     11.31528     12.27125        -0.094459     -0.369505     -0.547061
Pb       0.02797     11.28584     12.34871         0.007353      0.190939     -0.550777
Pb       7.47024      3.73170      4.05145        -0.061648      0.030019     -0.169906
Pb       7.49091      3.70040     16.35959        -0.073177      0.337821     -0.283743
Pb       7.49672     14.89832      4.15365        -0.145065      0.082846     -0.892603
Pb       7.37153     14.96900      0.00460         0.337351     -0.001958      0.256825
Pb       7.38185      3.65410      8.14269         0.328955      1.465207      0.930040
Pb       7.49376      0.21915      8.12897         0.280436     -0.907362      0.796610
Pb       7.33924      3.79125     12.34256         0.413605     -0.140274     -0.212220
Pb       7.45784     14.89132     12.37061         0.282758      0.167018     -0.365781
Pb       7.51454      7.52287      4.08425         0.228210     -0.252642     -0.124285
Pb       7.50936      7.52901     16.32056        -0.059145     -0.851969      0.280403
Pb       7.47437      7.45015      8.32170        -0.140835      0.021293     -0.363946
Pb       7.46746      7.57967     12.36023        -0.576511     -0.760832     -0.307823
Pb       7.69821     11.21634      4.21241        -0.744202     -0.258383     -1.012815
Pb       7.52469     11.23824     16.36632        -0.475525     -0.036256      0.563352
Pb       7.59855     11.33984      8.08706         0.065227     -0.773481      0.467821
Pb       7.47226     11.24746     12.19386        -0.139720      0.662893      0.118379
Pb      11.06916      3.80747      4.13205         0.488442     -0.115153     -0.697573
Pb      11.27720      3.68709     16.38162        -0.740066      0.294495      0.459008
Pb      11.28465     14.98102      4.13944        -0.264626      0.159128     -0.968118
Pb      11.20409     14.92515      0.10209        -0.083662      0.216319     -0.340127
Pb      11.17019      3.73457      8.19764        -0.375785     -0.156215      0.478606
Pb      11.15648      0.05967      8.21085         0.318070      0.368544     -0.049202
Pb      11.20122      3.70290     12.38219         0.034219     -0.038953     -0.539721
Pb      11.23681      0.10786     12.41533        -0.159584     -0.847565     -0.336224
Pb      11.43507      7.49303      4.20187        -0.956939     -0.674430     -0.746508
Pb      11.27999      7.49116      0.05310        -1.021434     -0.142008      0.063709
Pb      11.24397      7.47197      8.23187        -0.329146     -0.193623     -0.023238
Pb      11.30950      7.45431     12.29752        -0.632887     -0.002301      0.034283
Pb      11.45350     11.11738      4.13512        -0.777805      0.343195     -0.064702
Pb      11.38294     11.11162     16.37730        -0.602658      0.150899      0.055030
Pb      11.30655     11.27414      8.28501        -0.239129     -0.563294     -0.668183
Pb      11.25322     11.26138     12.27011        -0.448240      0.561939      0.347834
Ti       1.82530      1.87769      2.11212         0.609340      0.007456      0.825995
Ti       1.84914      1.86033     14.44348        -1.325471     -0.906548      0.352897
Ti       1.89875     13.03153      2.21738         0.074537      1.242300     -0.656975
Ti       1.81264     13.08164     14.49807         0.554480      0.823507      0.831916
Ti      13.08287      1.89647      2.04868        -0.891420     -0.650936      1.628928
Ti      13.06131      1.87969     14.44367         0.844978     -1.049040     -1.320505
Ti      13.09861     13.10387      2.06320         0.668636      0.461787      0.635813
Ti      13.09474     13.06174     14.43592        -0.813323      1.412772      0.170641
Ti       1.84706      1.87060      6.21548        -0.639980      0.197044     -0.602072
Ti       1.89427     13.15940      6.28252        -0.925066     -0.336854     -0.940119
Ti      13.07901      1.84918      6.08326        -0.200068      0.146622      0.680041
Ti      13.04368     13.10079      6.17503         1.817076     -0.935757      0.723788
Ti       1.82546      1.85417     10.16819         0.317448     -0.372683      0.851758
Ti       1.87952     13.12373     10.22933        -0.458019      1.183627      1.491964
Ti      13.12780      1.83389     10.40931        -0.203651      0.522783      0.626500
Ti      13.09118     13.11605     10.24639         0.378934      0.644885      0.578636
Ti       1.83066      5.60771      2.06440         0.742927     -0.467380      2.459703
Ti       1.78543      5.61425     14.46029         0.566820      0.670040     -0.276115
Ti      13.16506      5.62844      1.92009        -1.070107     -0.244972      1.300629
Ti      13.05349      5.67152     14.38057        -0.096331     -1.438348      0.243102
Ti       1.79535      5.54144      6.20417         0.647071      1.515674     -0.211724
Ti      13.09029      5.53139      6.24140        -0.087944      1.141519     -0.115852
Ti       1.80833      5.56225     10.36368         1.257307      1.151430     -0.728283
Ti      13.05051      5.63284     10.29879         0.152528     -1.371548      0.234367
Ti       2.05386      9.35986      2.00642        -2.119755     -0.308016      0.355768
Ti       1.86015      9.34865     14.32092         0.706196      0.198541      1.867000
Ti      13.23068      9.35815      2.09660         0.914199     -0.383562      0.542619
Ti      13.16663      9.34838     14.38087        -0.557868     -0.022949      0.656402
Ti       1.90696      9.37011      6.23189        -0.881069     -1.322563      0.945296
Ti      13.16559      9.29509      6.21760         0.411845      0.465312      2.032329
Ti       1.75188      9.42762     10.23730         1.798397     -1.115331      0.591562
Ti      13.03705      9.35550     10.31680         0.385795      0.779172     -0.181660
Ti       5.57280      1.85960      2.09073         0.401942     -0.051506      0.753640
Ti       5.51445      1.88440     14.30288         0.484241      0.241353      0.312218
Ti       5.59610     13.11770      2.10131         0.298004     -1.028661      0.902373
Ti       5.56930     13.10180     14.34527        -0.262903     -0.045297      0.698253
Ti       5.64445      1.86454      6.23746        -0.983199      0.899503      0.101777
Ti       5.65891     13.15777      6.23944        -0.493302     -0.473704     -0.653020
Ti       5.57218      1.91213     10.27100        -0.301508      0.026681      0.760303
Ti       5.59879     13.27315     10.14997         0.093782     -2.277085      1.597829
Ti       5.59072      5.61746      2.00799        -0.507911     -0.730924      0.457417
Ti       5.47831      5.63183     14.35394         1.442324      0.223374      0.441742
Ti       5.58234      5.62762      6.16943         0.642147      0.186850      2.076297
Ti       5.61351      5.66603     10.28712        -1.964939      0.266241     -0.436754
Ti       5.69471      9.34834      2.09730         0.325267      1.124578      0.933688
Ti       5.63219      9.36692     14.35111        -0.658966     -0.195073      0.326888
Ti       5.73387      9.37126      6.16686        -0.408603     -0.431309     -0.508811
Ti       5.56554      9.44495     10.25559        -1.585499     -0.454945     -0.310805
Ti       9.30027      1.82271      2.08556         0.669156     -0.283830      0.035761
Ti       9.25635      1.80630     14.40117         0.318333      0.850595      0.593784
Ti       9.38718     13.02962      2.03872        -0.524763      0.880547      1.666939
Ti       9.36094     13.04429     14.50094        -0.344842      0.470055     -1.189299
Ti       9.36698      1.79275      6.12040        -0.058598      0.866495     -0.364072
Ti       9.44618     13.08114      6.12116        -0.650996     -0.527371      0.290002
Ti       9.32852      1.89237     10.36917         0.466008      0.357866     -0.363723
Ti       9.37009     13.17760     10.19193        -0.007513      0.306219      1.300255
Ti       9.32892      5.59486      2.05251         0.474923      0.926484      0.142990
Ti       9.32595      5.57521     14.36670        -0.181639      0.453845      0.441360
Ti       9.32461      5.62584      6.15842        -0.454137     -1.279909      0.442931
Ti       9.27384      5.63808     10.32879         0.760453     -0.539519     -0.413531
Ti       9.44073      9.32757      2.01596        -0.311931     -0.759525      0.506912
Ti       9.35813      9.29237     14.31450         1.124308     -0.140469      1.880034
Ti       9.40097      9.23725      6.26465         0.278433      1.573882      0.323347
Ti       9.26222      9.39360     10.34346         0.861329     -0.496773     -1.494302
O       1.81547      1.87074      0.29201         0.096639      0.068492      0.249975
O       1.76466      1.94258     12.63674         0.456775     -0.630304     -0.181799
O       1.87884     13.08796      0.35425        -0.485351     -0.242251      0.095518
O       1.74719     13.17141     12.73328         0.236062     -0.044283     -1.874589
O      13.07872      1.74112      0.26668        -0.111855      0.248609     -0.560991
O      13.11867      2.05388     12.47652         0.194004     -0.843609      1.933062
O      12.92859     13.11099      0.20566         1.074029      0.052711      0.992109
O      13.02421     13.10780     12.64349         0.384685     -0.385549     -0.113987
O       1.72942      1.86966      4.39800         0.293978     -0.466976     -0.065696
O       1.84444     13.04909      4.44907         0.353231      0.407886      0.045319
O      13.04221      1.89028      4.30374         0.394018      0.132668      0.131362
O      13.04975     12.98627      4.41113         0.283730      0.253523     -0.995163
O       1.86311      1.87056      8.36209        -0.381621      0.337830      0.580795
O       2.03652     13.26040      8.48528        -0.677475     -0.929218     -0.906281
O      12.94861      1.82172      8.65915         0.114910     -0.347567     -2.377260
O      13.10023     13.16964      8.42345        -0.281324     -0.241013      0.462098
O       1.84925      5.57525      0.31385         0.048888     -0.090400     -1.865230
O       1.95335      5.52826     12.65470        -0.523237      0.345166     -0.723804
O      13.13708      5.69008      0.11204         0.209866     -0.496598      0.660222
O      13.14790      5.56829     12.52794        -0.639459      0.404505      0.377857
O       1.95596      5.59976      4.40858        -0.835560      0.222664      0.233173
O      13.08903      5.63939      4.41863         0.022726     -0.274255      0.245982
O       1.79319      5.55095      8.49363        -0.190596     -0.207744      0.577211
O      13.16390      5.74157      8.47030        -0.076098     -0.519701      0.089816
O       1.96639      9.29218      0.19382        -0.195749      0.731232      0.684738
O       1.83172      9.44233     12.56854        -0.497122     -0.000391     -1.086214
O      13.26772      9.21551      0.33774        -0.396445      0.713530     -1.579763
O      13.10157      9.39668     12.61710         0.307276      0.001441     -1.020983
O       1.80456      9.34306      4.44487        -0.201877      0.034448     -0.473669
O      13.22776      9.36690      4.43264         0.182910     -0.358295     -1.361574
O       1.89640      9.28304      8.44230         0.177561      0.687711      0.586717
O      13.00591      9.32739      8.52487         0.120688      0.171833     -0.127446
O       5.57983      1.74092      0.29861         0.138091      0.445950     -0.379228
O       5.56255      1.94685     12.48178        -0.031331     -0.266308      0.622444
O       5.66708     13.16247      0.29436        -0.024931      0.042997     -0.789107
O       5.62251     13.12457     12.55757        -0.156045     -0.093607     -0.377133
O       5.75507      1.94906      4.47314        -0.338716     -0.398023     -0.532942
O       5.57060     13.10778      4.45304        -0.069530      0.030475     -0.281653
O       5.70811      1.85569      8.46955        -0.258570     -0.052350     -0.854723
O       5.49925     13.19331      8.38105         0.549692     -0.326778     -0.544520
O       5.43274      5.67694      0.21013         0.508438     -0.496301      0.377144
O       5.57556      5.56820     12.53326        -0.097570      0.228791     -0.015280
O       5.55947      5.49958      4.42610         0.304012      0.428983     -1.098344
O       5.61559      5.68648      8.45785        -0.186624      0.212358      0.205007
O       5.61263      9.40200      0.28564         0.260414     -0.401487     -0.443214
O       5.61931      9.37208     12.54236         0.046530      0.321963      0.141307
O       5.79952      9.31877      4.31024        -0.468743      0.566551      0.613029
O       5.61070      9.26454      8.43308        -0.467906      0.742231     -0.105709
O       9.28855      2.01068      0.26281         0.185473     -0.436555     -0.784978
O       9.26650      1.89329     12.61913         0.192839     -0.251410     -0.809529
O       9.31053     13.07424      0.26190         0.084639     -0.227310     -1.188483
O       9.41543     13.18038     12.69762        -0.392443     -0.221433     -0.232504
O       9.26688      1.68691      4.33019         0.315256      0.423980     -0.095645
O       9.49776     13.08614      4.30711        -0.268184     -0.043188      0.443770
O       9.51062      1.86058      8.48646        -0.492007     -0.059336      0.461041
O       9.33603     13.09055      8.40175         0.278392      0.186648      0.519447
O       9.52850      5.59691      0.25350        -1.015705     -0.193709     -0.149083
O       9.41842      5.69607     12.54520        -0.324285      0.096556     -0.348416
O       9.41709      5.66347      4.36101        -0.040063     -0.235365     -0.249136
O       9.40744      5.65491      8.51953        -0.278790     -0.198892     -0.330350
O       9.29022      9.22784      0.22434         0.385986      0.642843     -0.117517
O       9.25069      9.23734     12.56075         0.346963      0.278175     -1.795351
O       9.31733      9.30534      4.48555         0.401136      0.179409     -1.117152
O       9.28486      9.39021      8.47599         0.446288      0.062332      0.908799
O       3.76116      1.86255      2.43394        -0.055897     -0.549502      0.036457
O       3.67282      2.01998     14.73596         1.175975      0.005413     -0.289196
O       3.76929     13.26994      2.32742        -0.073628     -0.162616      0.419764
O       3.69398     12.95655     14.74755         0.991402     -0.128574     -0.268812
O      14.94546      1.83820      2.34646         0.224903      0.594478      0.060015
O      14.96895      1.59884     14.75921         0.245679      0.234300     -0.027729
O      15.00578     13.03057      2.43158        -0.025518     -0.302501     -0.307377
O      14.94404     13.20278     14.73770        -0.307961      0.234896      0.276831
O       3.69930      1.65861      6.42424         1.533326      0.169843     -0.294055
O       3.76264     13.39434      6.47789        -0.068114     -0.713413     -0.509750
O      14.94149      1.93630      6.36817        -0.635918      0.070870      0.517583
O       0.00587     13.06951      6.58682        -0.466127     -0.277708     -0.243684
O       3.73031      1.60086     10.46340        -0.416043      0.160146      0.420317
O       3.73324     13.22007     10.68603        -0.166887      0.908077     -0.149256
O       0.00151      2.03351     10.52081         0.021476      0.569367      0.036328
O      14.96325     12.99485     10.59603         0.199871     -0.487682      0.026051
O       3.73198      5.66809      2.45051         0.093758      0.133178     -0.482179
O       3.68102      5.43934     14.61591        -0.385895     -0.083431      0.482698
O      14.99241      5.35472      2.39090        -0.199400      0.537104     -0.225054
O      14.94562      5.70655     14.54212        -0.087743      0.440913      0.381727
O       3.71984      5.71699      6.48035        -0.149707      0.369286      0.108668
O      14.98370      5.41740      6.46250        -0.872197     -0.479575     -0.079361
O       3.70485      5.93744     10.49859        -0.297590     -0.782576      0.314398
O      15.00113      5.33083     10.64984        -0.766815      0.669379     -0.359580
O       3.79922      9.21683      2.43766         0.865124     -0.180000      0.107835
O       3.77537      9.49139     14.66369        -0.296044      0.144664     -0.517763
O       0.13410      9.59959      2.24286        -0.490029     -0.225862      0.566753
O       0.00072      9.13572     14.63669        -0.630809      0.362935      0.000316
O       3.72709      9.19621      6.29454         0.670895      0.144001      0.426529
O       0.01555      9.56751      6.71744        -0.782356     -0.438746     -0.962510
O       3.59902      9.44430     10.61789         1.072280     -0.949110      0.047735
O      14.94186      9.69764     10.40754        -0.506921     -0.159318      0.699140
O       7.51938      1.94679      2.45674        -1.388956      0.089507     -0.368990
O       7.36263      1.69447     14.67983         0.657816      0.042176     -0.059798
O       7.51647     12.87545      2.41856         0.518246      0.593261     -0.056131
O       7.39557     13.29839     14.63306         1.510956     -0.022738      0.303263
O       7.57556      2.11469      6.48762        -1.365967     -0.580556      0.115318
O       7.50811     12.95141      6.36487         0.437748     -0.354118      0.096179
O       7.48094      2.07856     10.54629        -0.443550     -0.127906      0.045984
O       7.50094     13.01608     10.57370        -0.090773     -0.200086     -0.282722
O       7.42670      5.54531      2.37852         1.165311     -0.432529     -0.299957
O       7.44434      5.70613     14.70930         0.209531      0.435708     -0.212972
O       7.44790      5.45541      6.54058         0.798348     -0.033986     -0.446539
O       7.40956      5.41070     10.46678         0.937848      0.273662      0.643999
O       7.55644      9.46382      2.30697        -0.065112      0.112773      0.156578
O       7.51748      8.98910     14.53346        -0.951349      0.824878      0.254631
O       7.53522      9.53267      6.47603        -0.102009      0.381889      0.201692
O       7.37472      9.48815     10.44405         1.464481      1.011290      0.760357
O      11.16445      1.75551      2.47627         1.192315     -0.180938     -0.540905
O      11.24660      2.11915     14.62385        -1.246624     -0.299287     -0.275149
O      11.30689     13.29639      2.36203        -1.179543     -0.609080     -0.218957
O      11.18590     12.88431     14.76517         0.400944     -0.083793     -0.132516
O      11.14669      1.66188      6.35492         2.752896     -0.479880      0.494485
O      11.24751     13.20618      6.43017        -0.560811      0.505879      0.548682
O      11.23807      1.83030     10.71474        -0.829564     -0.662242      0.072253
O      11.24300     13.29190     10.65366        -0.856425      0.296377     -0.549288
O      11.23523      5.73976      2.28194         1.236592      0.457312      0.350247
O      11.24493      5.31077     14.68395        -0.127879      0.207485     -0.687986
O      11.17442      5.83217      6.43014         1.722815     -0.181126      0.230561
O      11.22308      5.92072     10.47838        -0.103399      0.108362      0.376615
O      11.38002      9.17807      2.27760        -1.143142     -0.038132      0.445641
O      11.27980      9.39463     14.68970        -0.596091      0.599021     -0.028990
O      11.28554      9.14932      6.42923         0.081372     -0.119053     -0.027942
O      11.18631      9.18090     10.58527        -0.538747     -0.234467      0.279286
O       2.00827      3.73760      2.53255        -0.567409     -0.526688     -0.766431
O       1.71175      3.72988     14.69685        -0.345571      0.011139      0.401013
O       1.92737     14.97632      2.41706        -0.762970      0.566061      0.231142
O       2.06622     14.94974     14.76102        -0.411771      0.783437     -0.307946
O      13.00142      3.76178      2.20312         0.001586     -0.566097      0.156672
O      13.35637      3.67150     14.65041        -0.133283      1.492142      0.257447
O      13.24186     14.95121      2.43801        -0.196999      0.425155     -0.178443
O      12.89684      0.00690     14.64254        -0.139023     -1.126473     -0.170958
O       2.02955      3.70514      6.47103        -0.288846      0.131928      0.005868
O       1.73538     15.00903      6.56739        -0.246436     -0.143236     -0.436799
O      12.97086      3.68075      6.56181        -0.274684      0.277452     -0.151452
O      13.18226     14.96785      6.34238         0.081843      0.874977      0.295273
O       2.10926      3.72345     10.57182        -0.091292     -0.485889     -0.357189
O       1.62787      0.01857     10.48199         0.120876     -0.477868      0.659075
O      12.91176      3.78194     10.46584         0.092058      0.658123     -0.025308
O      13.33748     14.95535     10.61021        -0.539353      0.371473      0.191082
O       1.78769      7.48393      2.37112        -0.404270      0.164502      0.001608
O       1.95469      7.52591     14.70198         0.391315     -1.273803     -0.257267
O      13.45797      7.45198      2.31004        -0.304961      0.161171      0.427389
O      12.83416      7.45731     14.74405         1.072313      0.506856     -1.190502
O       1.61560      7.45347      6.56791         0.314235      0.333617     -0.474494
O      13.33284      7.45719      6.53002        -0.029372     -0.096131     -0.471469
O       1.65555      7.46021     10.63645        -0.593248      1.281601      0.058360
O      13.33815      7.52918     10.69093        -0.202332     -0.199096     -0.367672
O       2.12404     11.22581      2.48904        -0.253785     -0.545461     -0.193492
O       1.74323     11.24178     14.68400        -0.533349     -1.024892      0.278718
O      13.08449     11.21385      2.38008        -0.347832      0.419734     -0.217770
O      13.24311     11.20273     14.80569         0.053445     -0.489636     -0.270700
O       2.00392     11.26608      6.52693         0.216285      0.134235      0.172205
O      12.93130     11.19513      6.44521         0.172658      0.207057      0.389041
O       1.99663     11.34443     10.54557        -0.589824     -1.178019      0.144606
O      12.79747     11.26610     10.54484         0.591507     -0.414192      0.011515
O       5.57954      3.74018      2.48547         0.053778     -0.281908     -0.671613
O       5.73893      3.79252     14.69955        -0.290016     -1.539899     -0.156790
O       5.72938     14.96662      2.47830         0.330066      0.998676     -0.065672
O       5.41248     14.99093     14.47463        -0.417381      0.651245      0.421504
O       5.43132      3.76095      6.51961         0.175780     -0.736796      0.179074
O       5.90066      0.02685      6.41148        -0.127567     -0.253319      0.058644
O       5.36339      3.76266     10.42909        -0.199537     -0.080804      0.415991
O       5.78901     14.98524     10.50413         0.158467      1.397019      0.480123
O       5.71508      7.39368      2.50075        -0.184438      1.584762     -0.568166
O       5.39764      7.48099     14.73097         0.191920      0.424245     -0.481558
O       5.76463      7.57124      6.36752        -0.226827     -2.172808      0.259874
O       5.63926      7.58876     10.60376         0.358605     -0.707677      0.056456
O       5.54333     11.24534      2.37736        -0.434235     -0.794435     -0.008071
O       5.81209     11.23955     14.64312        -0.002219     -0.619700      0.030069
O       5.37923     11.19161      6.34894         0.133002      1.541854      0.810483
O       5.37588     11.31394     10.49204         0.758135      0.162402      0.071765
O       9.49014      3.74569      2.28784        -0.320500      0.143166      0.763416
O       9.10597      3.73389     14.48717        -0.010788     -0.422049      0.722306
O       9.24751     14.94940      2.20021        -0.132416     -0.340339      0.153969
O       9.54756      0.01189     14.64834        -0.101636     -0.844221      0.467021
O       9.71379      3.68768      6.31774        -0.924725      0.865569      0.064820
O       9.19478     14.95300      6.50917         0.102889     -0.414236     -0.302554
O       9.45991      3.78212     10.52048         0.469199      0.021129      0.486704
O       9.18837      0.04873     10.64209         0.316394     -1.276644     -0.400962
O       9.18536      7.50143      2.42392         0.684830     -0.111648     -0.417945
O       9.49767      7.42168     14.70308         0.515372      0.195733     -0.103311
O       9.23943      7.43319      6.48500        -0.510629      0.451825      0.400865
O       8.98103      7.53875     10.46012         0.549472     -0.399394      0.448554
O       9.54227     11.19102      2.31268         0.454235     -0.405404      0.241946
O       9.15980     11.12605     14.58450        -0.149104      0.876691      0.270317
O       9.59619     11.19584      6.55330        -0.519473      0.744728     -0.455352
O       9.49989     11.27894     10.64005        -0.287983      0.043582     -0.210865
