  # total energy = -7883.16934990 
CRSYTAL
PRIMVEC
    15.3600000000000000    0.0000000000000000    0.0000000000000000
     0.0000000000000000   15.3600000000000000    0.0000000000000000
     0.0000000000000000    0.0000000000000000    17.440000000000000
PRESSURE
0.388716 0.372668 -3.07315 0.179882 0.264918 -0.014535
PRIMCOORD
320 1
Pb       3.74662      3.85068      4.25069         0.288377      0.383860      0.045975
Pb       3.78878      3.85640     17.33735         0.112594     -0.146257      0.719073
Pb       3.82490      0.01819      4.23416        -0.118471      0.381713      0.254913
Pb       3.86439      0.08285      0.04679        -0.253334     -0.054595     -0.317412
Pb      15.26348      3.83921      4.32227        -0.232916     -0.153384      0.055155
Pb      15.27585      3.84465     17.41692        -0.090383     -0.197802     -0.270590
Pb      15.22756     15.26516      4.29208         0.455163      0.663024      0.282469
Pb      15.31182     15.30406      0.03523         0.456107      0.339098     -0.172376
Pb       3.84207      3.80325      8.71090        -0.056927      0.215814     -0.842063
Pb       3.81724     15.28409      8.78272         0.009092      0.243144     -0.914323
Pb       0.07264      3.67855      8.67662        -0.042680      0.582961      0.285085
Pb       0.06819      0.00363      8.63796         0.128532      0.012825     -0.618057
Pb       3.69952      3.89200     13.06452         0.693214      0.081740     -0.156632
Pb       3.85032     15.25176     13.20207         0.351039      0.217682     -0.549822
Pb      15.27347      3.82643     13.03346        -0.121079     -0.080366     -0.506617
Pb       0.01617      0.03953     13.00801         0.030353      0.212541      0.171981
Pb       3.82246      7.63051      4.27074        -0.106670     -0.242390     -0.084398
Pb       3.78101      7.71890     17.42157         0.240011      0.144833     -0.147295
Pb      15.28921      7.56564      4.36481        -0.140727      0.142586      0.025097
Pb      15.34723      7.72337     17.35935        -0.160998     -0.259043     -0.020018
Pb       3.91481      7.56172      8.77715        -0.261292     -0.125552     -0.903352
Pb       0.02725      7.63119      8.75408        -0.335932      0.095022     -0.773331
Pb       3.77912      7.74943     13.04993         0.280985     -0.419383      0.117177
Pb       0.04721      7.68599     12.94505        -0.342961     -0.000224      0.635006
Pb       3.76210     11.46992      4.27525         0.484649     -0.287064     -0.199449
Pb       3.85635     11.43568     17.43899        -0.300141      0.153925     -0.335627
Pb      15.33581     11.50626      4.28819        -0.410417     -0.194829      0.402600
Pb       0.01386     11.45736     17.43728        -0.100167      0.256759     -0.621600
Pb       3.72480     11.52708      8.67565         0.056086      0.164084     -0.068249
Pb       0.00782     11.44517      8.63996        -0.237608      0.187626     -0.044117
Pb       3.77854     11.54733     13.06335        -0.213905      0.287846      0.269536
Pb      15.23415     11.44986     13.14541        -0.062712      0.251234     -0.551640
Pb       7.63927      3.84306      4.39732         0.270612     -0.180168      0.062948
Pb       7.64850      3.88473     17.29442         0.728476     -0.096006      0.095646
Pb       7.65552      0.08260      4.20495         0.300252     -0.131242      0.337332
Pb       7.75033     15.33757      0.00332         0.053316      0.093644     -0.632570
Pb       7.70140      3.67015      8.76686         0.468367      0.153073     -0.448717
Pb       7.62939     15.25464      8.64396         0.449511      0.363521     -0.039793
Pb       7.57702      3.73871     13.16522         0.330669      0.169993     -0.744282
Pb       7.61630     15.22211     13.17306         0.261222      0.307705     -0.650750
Pb       7.57956      7.69284      4.31921         0.256455     -0.170733      0.137479
Pb       7.78781      7.57125     17.40680        -0.091097      0.155141     -0.224886
Pb       7.53643      7.68999      8.68366         0.394721     -0.265056      0.029051
Pb       7.57701      7.61040     12.99581         0.226259     -0.011583     -0.120356
Pb       7.67705     11.51858      4.32174         0.005153      0.146013     -0.409821
Pb       7.73977     11.48436      0.04258         0.047848      0.019174     -0.193460
Pb       7.62488     11.39093      8.71855         0.044140      0.691811     -0.281562
Pb       7.60249     11.41314     13.10999        -0.100796      0.086856     -0.062183
Pb      11.47046      3.84084      4.41084         0.692269      0.231880     -0.688289
Pb      11.44106      3.81706     17.31873         0.414254     -0.109291      0.321112
Pb      11.38015      0.08984      4.27562         0.683835     -0.282905     -0.207682
Pb      11.65838     15.35887     17.33494        -0.277528      0.349791      0.365314
Pb      11.55465      3.78895      8.75002        -0.283453     -0.045285     -0.324843
Pb      11.48405     15.20341      8.63254         0.133426      0.605406      0.247508
Pb      11.48144      3.86798     13.05092        -0.311200      0.092760     -0.876010
Pb      11.51487     15.30923     12.99396        -0.303735     -0.050457     -0.217933
Pb      11.44984      7.76511      4.34398         0.333455     -0.172515     -0.663391
Pb      11.52458      7.59274     17.40203        -0.052058      0.097727     -0.163592
Pb      11.41631      7.58014      8.72497         0.488939      0.344709     -0.151799
Pb      11.58887      7.74271     12.86371        -0.479003     -0.166589      0.140552
Pb      11.44845     11.50723      4.45508         0.294699     -0.066467     -0.525186
Pb      11.60780     11.54431      0.02349         0.024261     -0.315775     -0.666828
Pb      11.44041     11.53179      8.75788         0.302137     -0.249704     -0.294803
Pb      11.39900     11.46726     12.99989         0.937125      0.238860     -0.053856
Ti       1.90638      1.96684      2.31547        -0.499331      0.127920     -0.857004
Ti       1.96224      1.90906     15.36511        -0.437714     -1.173605      0.934000
Ti       1.99699     13.42224      2.32974        -0.656977      0.656326     -1.209673
Ti       1.90557     13.42449     15.43778         0.253485     -0.103864      0.269552
Ti      13.43491      1.91873      2.34006         0.005626     -0.300775     -0.388462
Ti      13.55597      1.92758     15.34668        -1.051811      0.434967      0.345711
Ti      13.51452     13.40632      2.26900        -1.357954      0.479794     -0.433166
Ti      13.50224     13.45935     15.34644         0.033923     -0.596336     -0.161748
Ti       2.03286      1.95970      6.57323        -0.203946     -0.683805      1.361604
Ti       2.04548     13.47847      6.61239        -1.076254      0.536137     -0.648444
Ti      13.47686      1.97768      6.68199         0.012587     -0.228720     -1.278068
Ti      13.48204     13.49625      6.69002         0.208791     -0.324692     -1.016501
Ti       2.07154      1.92537     11.05124        -1.197477      0.204815     -0.773209
Ti       1.86092     13.49173     11.06107         1.091970     -0.584260     -0.843738
Ti      13.47398      1.90073     10.96751        -0.194805      0.806558      0.167558
Ti      13.53133     13.56614     10.99150        -1.865946     -1.737921     -0.126877
Ti       1.81224      5.79606      2.26799         1.729715     -0.471894      0.503339
Ti       1.88659      5.72610     15.38381        -0.409014      0.631937     -1.222537
Ti      13.48725      5.72023      2.20098        -1.776064     -0.225524      0.338172
Ti      13.42910      5.84411     15.31728         0.064630     -1.534102      0.086593
Ti       1.84706      5.73522      6.70056         1.289038      0.195381     -0.453252
Ti      13.44356      5.75863      6.77145         0.588169     -0.247242     -1.301322
Ti       1.88624      5.78951     11.01145         0.444113     -0.671597     -0.886290
Ti      13.48203      5.79778     10.96185        -1.479100      0.367881     -1.277260
Ti       1.79948      9.60060      2.33709         0.611888     -0.842932     -0.038047
Ti       1.85318      9.56504     15.41752         0.432257      0.239492      0.102109
Ti      13.36843      9.59893      2.28776        -0.164642     -0.728544     -0.684158
Ti      13.38144      9.57355     15.38341         0.386765      0.684446      0.397469
Ti       1.85228      9.60621      6.62095        -0.083531     -0.812029     -0.462047
Ti      13.37065      9.64293      6.67521        -0.200344     -0.797237     -0.139590
Ti       1.88084      9.60645     11.01149        -0.599541      1.630296     -1.229625
Ti      13.47129      9.66667     10.97600        -1.171385      0.136686     -0.893931
Ti       5.80774      1.97731      2.31061        -0.933409     -0.119400     -1.607693
Ti       5.73918      1.98234     15.49729         0.636971     -0.934507     -1.634131
Ti       5.79866     13.49648      2.24190         0.118912     -0.768430     -0.378490
Ti       5.76014     13.39964     15.54330        -0.062561      0.281417      0.932107
Ti       5.83073      1.89415      6.69531        -0.321397      0.203245     -1.145079
Ti       5.79643     13.42732      6.59196         0.278334      0.612286      0.922129
Ti       5.79714      1.88674     11.01465         0.299288     -0.185611     -0.179600
Ti       5.77940     13.42437     11.00535        -0.355921      0.222385      0.841966
Ti       5.88093      5.72839      2.30345        -1.590039      0.311489      0.351957
Ti       5.74054      5.83405     15.37871         0.176590     -0.504604     -1.279816
Ti       5.87126      5.69287      6.67698        -1.916692      0.331791     -0.258127
Ti       5.70282      5.72902     11.04307         0.527545      0.213006      0.419310
Ti       5.75171      9.58905      2.31913        -0.515648      0.193945      0.506610
Ti       5.80093      9.55867     15.39046        -0.273859     -0.042555     -0.588143
Ti       5.66413      9.62723      6.68938        -0.505461     -0.384325     -0.786271
Ti       5.60754      9.69894     11.09305         1.283616     -1.442770     -0.216363
Ti       9.61390      1.97119      2.23077         0.682470     -0.047700     -0.780355
Ti       9.66851      1.78097     15.32638         0.037705      0.635272      0.000867
Ti       9.67931     13.41203      2.23202        -0.122599      0.313415     -0.402425
Ti       9.65982     13.31927     15.39300        -0.204699      0.541595      0.144974
Ti       9.66440      1.88694      6.66475        -0.548993      0.051224     -0.275179
Ti       9.61918     13.41480      6.61020        -0.332867     -0.034108      0.670041
Ti       9.60812      1.87875     11.03097         0.199079      0.405914     -0.093858
Ti       9.58338     13.39440     10.98407         0.737587      1.035702      0.034843
Ti       9.63688      5.74913      2.35015         0.764990      0.124713     -0.866246
Ti       9.61738      5.73790     15.24417        -0.327545     -0.021525     -0.443675
Ti       9.61092      5.78775      6.62172        -0.220313     -1.036862      0.075609
Ti       9.55864      5.79729     11.05773         0.398988     -0.684374      1.290110
Ti       9.55569      9.60704      2.23091         0.275130     -0.883105      0.066201
Ti       9.59840      9.54410     15.38768         0.181439     -0.183824      0.169382
Ti       9.50050      9.61008      6.68253         2.379473      0.229822     -1.568749
Ti       9.49304      9.65364     11.06229         0.363418     -1.270098     -0.380460
O       2.04414      1.93538      0.50242        -0.226838     -0.015271      0.972178
O       1.88240      1.69501     13.60298         0.292446      0.874584      0.101955
O       1.97943     13.41390      0.52198        -0.238423     -0.069307      1.501440
O       1.90138     13.43086     13.64825        -0.020182      0.071463      0.026271
O      13.44907      1.86946      0.55188         0.211259     -0.071094      0.032969
O      13.46068      1.87246     13.56341         0.256381      0.498004      0.250992
O      13.53553     13.52946      0.43954        -0.143925     -0.452943      1.088326
O      13.50535     13.43243     13.56735         0.285176      0.036454      0.342107
O       2.01235      1.90087      4.84760        -0.089147      0.339374     -0.740281
O       2.03477     13.54464      4.81246         0.045439     -0.552148      0.377335
O      13.45993      2.03201      4.83603        -0.105866     -0.196282      1.329232
O      13.43322     13.37371      4.87967         0.167864      0.100295      1.248480
O       2.03450      1.98610      9.24854         0.081937     -0.501618      0.920041
O       2.08172     13.56162      9.24422        -0.405246     -0.097394      0.630201
O      13.47413      1.94176      9.20841         0.061811     -0.148429      0.364783
O      13.45044     13.51729      9.22929         0.144413      0.115804     -0.649175
O       1.92028      5.78381      0.51970        -0.092792      0.256638     -0.906021
O       1.89776      5.84647     13.54156        -0.244956     -0.499846      1.007828
O      13.42239      5.71685      0.39418         0.297549      0.299032      1.025361
O      13.49961      5.82962     13.51786         0.091869     -0.174877      0.614214
O       1.79819      5.72651      4.89924         0.107074      0.006747      0.441651
O      13.50360      5.54377      4.89433        -0.098325      0.527662      1.584865
O       1.86987      5.70945      9.20448         0.577094      0.459872      1.252661
O      13.49204      5.85190      9.12497        -0.306420     -0.166472      1.349469
O       1.91156      9.53570      0.54281        -0.252047     -0.059131      0.030418
O       1.85191      9.65911     13.68372        -0.054641     -0.036928     -1.481929
O      13.34480      9.44393      0.46829         0.323668      0.489986      1.103950
O      13.39753      9.74037     13.62349         0.133382     -0.521647     -0.543982
O       1.80280      9.63575      4.80569         0.350326      0.050401      0.905417
O      13.26955      9.73402      4.84841         0.174643     -0.303429      0.883031
O       1.83809      9.61077      9.20288         0.326199      0.196022      1.027771
O      13.46593      9.57801      9.20142         0.150501      0.294654      0.075527
O       5.68603      1.97592      0.46013         0.430526      0.048651      1.286696
O       5.68724      1.94993     13.66147         0.301673      0.201870      0.644125
O       5.77982     13.45704      0.44448         0.029648      0.001227      0.359193
O       5.77410     13.43385     13.79493         0.157147     -0.117398     -0.304388
O       5.86751      1.98052      4.88475        -0.026196     -0.354694      0.264614
O       5.78130     13.43611      4.86172         0.065684      0.003480     -0.518086
O       6.02208      1.81152      9.21262        -0.860291      0.281571      0.743399
O       5.77657     13.40863      9.26061        -0.193485      0.144199     -0.335881
O       5.90560      5.75430      0.53363        -0.180875      0.010517      0.239345
O       5.75104      5.79346     13.52528        -0.022644     -0.070461      1.346282
O       5.85896      5.82857      4.89942        -0.172105     -0.337217      0.056157
O       5.72978      5.80827      9.26222         0.130027      0.084278      0.131306
O       5.68265      9.52983      0.59150         0.069696      0.021999     -0.848845
O       5.78898      9.64083     13.56870        -0.230220     -0.094974      0.741423
O       5.63594      9.55227      4.90192         0.209668      0.231872      0.840647
O       5.66544      9.57141      9.32320         0.192723      0.556582     -0.760596
O       9.70610      1.94719      0.41304        -0.554062     -0.111883      1.833623
O       9.69263      1.80708     13.50452        -0.131335      0.241471      1.081139
O       9.59036     13.37485      0.41828         0.459984      0.087558      1.557617
O       9.56487     13.40394     13.59690        -0.052357     -0.286771      1.046531
O       9.51408      1.75863      4.84687         0.480502      0.489364      0.655654
O       9.50583     13.28813      4.85131         0.183141      0.378976     -0.569451
O       9.65993      2.04450      9.20234        -0.491648     -0.462443      1.193259
O       9.75013     13.44893      9.20214        -0.539979     -0.423588      0.457293
O       9.56861      5.75601      0.54412        -0.085841      0.131622      0.427000
O       9.46325      5.76136     13.45224         0.642364     -0.199006      1.375314
O       9.52154      5.58980      4.85591         0.634109      0.899575      0.599530
O       9.61548      5.73638      9.33596        -0.308846      0.069760     -1.775787
O       9.49227      9.60127      0.41785         0.417327     -0.422835      1.284152
O       9.63610      9.61772     13.60594        -0.250986      0.287968      0.051282
O       9.60817      9.73024      4.80397         0.008974     -0.447443      1.701732
O       9.44697      9.70059      9.27700         0.103608     -0.112871      0.159043
O       3.84511      1.92181      2.73271         0.144259      0.226115     -0.116958
O       3.87589      2.01022     15.79195        -0.986200     -0.568200     -0.036511
O       3.86719     13.48603      2.60808        -0.336537     -0.188798      0.323978
O       3.84615     13.36072     15.87324         0.668053     -0.027660     -0.326654
O      15.31101      1.99893      2.70782         0.917269     -0.372699     -0.135080
O       0.07598      1.91472     15.80833        -0.186831      0.180669     -0.235308
O      15.34046     13.32746      2.70024         0.788877      0.534855     -0.003725
O       0.03481     13.41762     15.85357        -0.139620     -0.183398     -0.138575
O       3.92170      1.92730      7.02848        -0.409715      0.144034      0.256910
O       3.91522     13.49107      7.08633        -0.318939     -0.346010     -0.091453
O       0.05938      1.99294      7.09141         0.025388     -0.728584     -0.326012
O       0.04013     13.56100      7.00066        -0.292451     -0.275878      0.207664
O       3.87514      1.90816     11.47858        -0.039928     -0.046895     -0.097557
O       3.85005     13.34829     11.55641        -0.473480      0.517277     -0.286667
O       0.01607      1.97240     11.43733        -0.215753      0.013499     -0.049739
O      15.33924     13.42940     11.35358         0.224215      0.969621      0.305510
O       3.84773      5.69301      2.74607        -0.068331      0.723883     -0.259323
O       3.85725      5.73345     15.62605        -0.475014      0.352945      0.531704
O      15.34553      5.67842      2.68637        -0.824926      0.157616     -0.117597
O      15.35866      5.71810     15.81547         0.056656     -0.250006     -0.325018
O       3.89510      5.69480      7.08637        -0.409155      0.262733      0.259288
O       0.03762      5.74101      7.17649        -0.483288     -0.318884     -0.294875
O       3.77287      5.83670     11.50910         0.186912     -0.262645     -0.388334
O      15.34732      5.89093     11.33341         0.409376     -0.061381      0.341523
O       3.76018      9.52300      2.67282        -0.082401      0.459796      0.261034
O       3.80882      9.44236     15.70307         0.419919      0.234824      0.577248
O      15.22447      9.66845      2.73343         0.888608      0.020574     -0.210665
O      15.31653      9.61619     15.73047         0.220337     -0.462358      0.627343
O       3.78204      9.75017      7.11689         0.251730     -0.601290     -0.418064
O       0.00949      9.58437      7.06418        -0.149974      0.182037     -0.125003
O       3.76328      9.75420     11.48181        -0.630897     -0.085802     -0.034638
O      15.32822      9.51047     11.39751         0.521410      0.405616      0.249782
O       7.67662      1.98772      2.64285         0.675787     -0.389464     -0.092344
O       7.79506      1.80930     15.69189        -0.501178      0.431323      0.239327
O       7.62444     13.38630      2.60556         1.415053      0.254265      0.135065
O       7.78162     13.40049     15.92427        -0.905708      0.340166     -0.596561
O       7.76396      1.83872      6.99559        -0.210923      0.156215      0.614746
O       7.75451     13.46460      7.14337        -0.951813     -0.506171     -0.558700
O       7.62717      1.97672     11.44775         0.416456     -0.223566      0.188085
O       7.66621     13.48029     11.39760        -0.151246     -0.709564      0.092536
O       7.69294      5.82116      2.75587        -0.213818     -0.192292     -0.133298
O       7.70254      5.79991     15.73152        -0.132999     -0.521660     -0.015744
O       7.70384      5.83837      6.96957         0.596880     -0.030395      0.703384
O       7.66610      5.69960     11.53469        -1.298409      0.293648     -0.690699
O       7.69597      9.41452      2.72146        -0.135057      1.044391     -0.376475
O       7.67735      9.53273     15.72117         0.329927     -0.092046      0.044669
O       7.72302      9.64651      7.04604        -2.024776     -0.039189      0.264158
O       7.54644      9.67270     11.48010         1.348702     -0.126268     -0.192451
O      11.49100      1.85154      2.68073        -0.705636      0.128610      0.265784
O      11.56839      1.88105     15.90654         0.462721      0.182698     -1.049077
O      11.57548     13.59757      2.66452        -1.145722     -0.993773     -0.342692
O      11.64165     13.38897     15.69786        -0.821284     -0.283756      0.288544
O      11.59338      1.98294      7.07378        -0.880316     -0.068937     -0.192394
O      11.50858     13.39309      7.04832         1.040191      0.061642     -0.043004
O      11.48182      1.77212     11.37364         0.465019      0.810250     -0.030893
O      11.53700     13.46441     11.38170        -0.147479      0.065348      0.182351
O      11.59980      5.70054      2.63961        -0.438506      0.412437      0.279130
O      11.49146      5.76212     15.66397         0.622697      0.002015     -0.130788
O      11.54468      5.73310      7.08181        -0.795308      0.157724     -0.108170
O      11.47638      5.79878     11.38954         0.916537     -0.104278      0.236979
O      11.46747      9.59451      2.65954        -0.005513     -0.454300      0.073343
O      11.56854      9.57602     15.84000        -1.066869     -0.012303     -0.051519
O      11.48364      9.50096      7.12920         0.312290      0.508702     -0.191249
O      11.48862      9.63779     11.44654        -0.131645      0.051885     -0.274494
O       1.84271      3.90759      2.56981         0.580001     -0.875835      0.583288
O       2.00804      3.77864     15.75412        -0.595113      0.911380     -0.467247
O       1.83167      0.10104      2.76964         0.314233     -1.521051     -0.479217
O       1.92173     15.28742     15.91338         0.515936      0.758457     -0.560038
O      13.34219      3.74999      2.67331         0.431102      1.604161     -0.058903
O      13.49474      3.83323     15.79847        -0.150703     -0.046386     -0.616560
O      13.47776     15.34550      2.78758         0.123246     -0.478760     -0.338985
O      13.54954      0.05646     15.78070        -0.123742     -0.958789     -0.208227
O       1.96201      3.78790      7.10525         0.117805      0.522424     -0.155836
O       1.97425      0.00720      7.02117         0.167488      0.259176      0.374780
O      13.48189      3.83052      7.20761        -0.032953      0.223274     -0.227741
O      13.43052      0.09184      7.01335         0.168161     -1.335362      0.121788
O       1.92705      3.88831     11.35037        -0.054531     -0.034920      0.642104
O       1.90387      0.05384     11.42407         0.121360     -0.555954      0.013231
O      13.39995      3.94260     11.34716         0.189521     -1.183745      0.395699
O      13.41999      0.06843     11.39947         0.561008     -0.486044      0.032841
O       1.73010      7.69847      2.72357         0.338833     -0.190891     -0.031961
O       1.75467      7.62681     15.68776         0.721294     -0.114207      0.545341
O      13.48684      7.62187      2.74084        -0.306979      0.266544     -0.232289
O      13.44775      7.63771     15.79909         0.088278      0.284443     -0.255685
O       1.87551      7.63737      7.04024         0.499099      0.882807     -0.058741
O      13.50565      7.65142      6.99426        -0.106744      0.282012     -0.100161
O       1.98606      7.78925     11.44301        -0.260160     -0.877212     -0.183311
O      13.31939      7.73441     11.25374         0.514406     -0.519869      0.662948
O       1.90121     11.49432      2.64403         0.228215      0.685157      0.304502
O       1.92731     11.45141     15.85506        -0.007254      0.487674      0.170902
O      13.35108     11.51250      2.60154        -0.071839      0.248242     -0.157481
O      13.54155     11.45753     15.78758        -0.318158      0.996185      0.298806
O       1.84698     11.57870      6.95783         0.400310     -0.175174      0.304551
O      13.49141     11.47281      7.07827        -0.176416      1.062272      0.089713
O       1.71341     11.64545     11.30534         0.755750     -1.772832      0.479694
O      13.41791     11.54541     11.29876         0.409388      0.106554      0.407640
O       5.79868      3.81798      2.73119        -0.005829      0.796480     -0.077448
O       5.75859      3.85035     15.83216         0.555314      1.130806     -0.216420
O       5.78331      0.03202      2.62336         0.045294     -0.021805      0.044771
O       5.71682      0.12270     15.83449         0.281987     -2.174042      0.185571
O       5.81522      3.83351      7.05476         0.542219     -0.200408      0.346407
O       5.76781      0.04776      7.05026         0.319278     -1.457420      0.116826
O       5.63349      3.82624     11.24712         0.175295     -0.110682      0.515009
O       5.68938     15.29349     11.53523         0.214443      0.563120     -0.247291
O       5.69404      7.73943      2.76957         0.269540     -1.452250     -0.056192
O       5.80339      7.65739     15.88933        -0.285487     -0.194890     -0.340756
O       5.71357      7.69518      7.12607         0.180080      0.665109      0.093647
O       5.65397      7.70971     11.34802         0.119662     -0.024828      0.444205
O       5.80242     11.52798      2.71940        -0.531284     -0.351882     -0.113145
O       5.85474     11.37334     15.88437        -0.596113      1.473216     -0.128916
O       5.76163     11.55115      6.99725         0.310643     -0.452348      0.290130
O       5.74743     11.53731     11.47632         0.031844      0.566645      0.161813
O       9.64052      3.90696      2.73762        -0.333493     -1.813673     -0.147977
O       9.68213      3.82363     15.81501        -0.684737      0.151310     -1.115141
O       9.61351     15.35530      2.63196        -0.814653     -0.134192     -0.132466
O       9.77886     15.29035     15.77888        -0.623508     -0.407126     -0.245421
O       9.56885      3.79557      7.00548         0.120862      0.717495      0.100720
O       9.68021     15.30171      7.09529         0.009431      0.501206     -0.385204
O       9.63187      3.85295     11.48924        -0.040352     -1.223691     -0.091377
O       9.53981     15.26056     11.45559        -0.057115      1.118962     -0.223844
O       9.63582      7.59570      2.76984         0.160802      1.177850     -0.047252
O       9.61825      7.64323     15.71011         0.066814     -0.092825      0.241510
O       9.58868      7.71101      7.10436        -0.099422     -0.568732     -0.334405
O       9.62298      7.71021     11.38615        -0.659464      0.695435      0.037692
O       9.62259     11.47165      2.57730        -0.279764      0.744226      0.058396
O       9.58922     11.40927     15.90788         0.399021      1.112789     -0.613262
O       9.69069     11.51991      7.03725        -0.429877     -0.438928      0.289250
O       9.68995     11.50970     11.38398        -0.947193      0.349647      0.151671
