  # total energy = -7879.30694333 
CRSYTAL
PRIMVEC
    15.6000000000000000    0.0000000000000000    0.0000000000000000
     0.0000000000000000   15.6000000000000000    0.0000000000000000
     0.0000000000000000    0.0000000000000000    17.640000000000000
PRESSURE
-3.17743 -2.90907 -5.28755 -0.138324 0.330268 0.016107
PRIMCOORD
320 1
Pb       3.95399      3.87628      4.32079        -0.864198      0.063912      0.881630
Pb       3.96717      3.92538     17.55344        -0.171711     -0.204356      0.598612
Pb       3.76748     15.47265      4.33965         0.505461      0.740970      0.667250
Pb       3.83449      0.01599      0.00941         0.396349     -0.006102      0.403933
Pb      15.51909      3.84476      4.30760         0.208930     -0.125259      0.808186
Pb       0.05758      3.88108     17.53424        -0.426784      0.146401      0.299952
Pb       0.00553     15.57048      4.32347        -0.054002      0.404668      0.452971
Pb      15.49932     15.57056     17.63386         0.334883      0.169914      0.517187
Pb       3.84278      3.96116      8.71547         0.034907     -0.131118      1.042617
Pb       3.88468     15.59460      8.76128        -0.090906      0.186534      0.128556
Pb      15.58029      3.93225      8.81139         0.510916     -0.128714      0.075638
Pb      15.51083      0.05863      8.67646         0.053229      0.207721      0.646944
Pb       3.92654      3.87215     13.19374        -0.310079     -0.002013      0.657397
Pb       3.95019      0.05166     13.15041        -0.015110     -0.361063      0.433679
Pb       0.03967      3.96462     13.14691        -0.159075     -0.755051      1.092445
Pb      15.50592     15.53109     13.19111         0.087768      0.325692      0.767103
Pb       3.96022      7.74959      4.33629        -0.334922      0.206359      0.318073
Pb       3.97325      7.72370     17.50883        -0.496726      0.173055      1.216435
Pb       0.00316      7.60253      4.26757        -0.267690      1.243004      1.161745
Pb       0.05634      7.73273     17.49058        -0.555230     -0.017147      0.737211
Pb       3.82326      7.73903      8.72647         0.352554      0.396163      0.741362
Pb      15.56594      7.82627      8.72446        -0.233598      0.004715      0.419061
Pb       3.93209      7.75986     13.15389        -0.604876      0.316495      0.398933
Pb       0.03400      7.72065     13.13103         0.058095      0.493420      0.384170
Pb       3.89303     11.62858      4.29975         0.170096     -0.256223      0.149739
Pb       3.83265     11.67543     17.54054         0.062157      0.207610      0.603198
Pb       0.05614     11.77841      4.32413        -0.327088     -0.734769      0.228460
Pb       0.01865     11.69765     17.50825         0.356541     -0.310854      0.405492
Pb       3.84039     11.79522      8.84643        -0.140358     -0.684376      0.058632
Pb      15.58317     11.67862      8.69880        -0.196052     -0.184450      1.099575
Pb       3.88635     11.68707     13.14920        -0.115402      0.017639      0.795172
Pb      15.53054     11.79116     13.15999         0.484406     -0.595718      0.846930
Pb       7.72580      3.77745      4.28786         0.427781     -0.411834      1.054852
Pb       7.81462      3.92808     17.61348        -0.231275     -0.572475      1.118873
Pb       7.67845     15.52922      4.37670         0.127189      0.468237      0.292868
Pb       7.72903      0.01048     17.53231        -0.103454     -0.297213      0.799531
Pb       7.68823      3.92066      8.78909         0.340867      0.176950      0.449819
Pb       7.72602      0.06885      8.76383         0.088883      0.034698      0.309441
Pb       7.73942      3.88389     13.26410         0.177381     -0.057904     -0.295530
Pb       7.81349      0.07315     13.08361        -0.225974      0.061817      0.424945
Pb       7.78191      7.66298      4.30967         0.224113      0.244511      0.997006
Pb       7.77321      7.71539     17.49468         0.170847      0.806809      1.286389
Pb       7.73651      7.81367      8.77191         0.213246     -0.115797      0.731283
Pb       7.84150      7.72044     13.19550        -0.218247      0.201423      0.029495
Pb       7.73152     11.53178      4.27037         0.020647      0.754336      1.024754
Pb       7.80226     11.63168     17.40737        -0.555948      0.106659      1.114052
Pb       7.76244     11.71962      8.60349         0.358934     -0.741117      1.295645
Pb       7.72744     11.74496     13.07748         0.370943     -0.391045      1.500437
Pb      11.75722      3.79835      4.23104         0.251450      0.092703      1.034585
Pb      11.60038      3.82096     17.59618         0.435050     -0.114200      0.537091
Pb      11.68913     15.55788      4.27069         0.581114     -0.095720      1.233408
Pb      11.71912     15.57885     17.60806        -0.410182     -0.256236      0.429035
Pb      11.70602      3.88586      8.68110        -0.576173      0.344540      1.297942
Pb      11.62080      0.01696      8.72803         0.931850      0.023644      0.967706
Pb      11.69987      3.86733     13.12004         0.313136      0.122294      0.157473
Pb      11.62848      0.05565     13.14393         0.578755     -0.147772      0.803787
Pb      11.62870      7.78812      4.36050         0.371329     -0.129810      0.595980
Pb      11.68000      7.76294     17.59328         0.583787      0.395003      0.740549
Pb      11.70165      7.80862      8.73565         0.063033     -0.398920      0.586028
Pb      11.65243      7.80962     13.07770         0.340089     -0.127176      0.882189
Pb      11.66597     11.50954      4.36686         0.602671      0.624228      0.487168
Pb      11.58269     11.73160     17.59327         0.298942     -0.205690      0.766936
Pb      11.60774     11.78754      8.89081         0.196513     -0.250246      0.011098
Pb      11.66192     11.70380     13.25789         0.017237     -0.243876      0.584366
Ti       1.95027      1.99889      2.41401        -0.396062     -0.536638     -1.555075
Ti       2.00167      1.93825     15.67109        -0.542694      0.119192     -2.020160
Ti       2.02032     13.63122      2.46538        -0.692273     -0.163919     -1.821328
Ti       1.92577     13.77249     15.64849        -0.754764     -1.287466     -1.478711
Ti      13.70005      1.89709      2.33835        -0.044416     -0.027120     -1.070141
Ti      13.63127      1.85923     15.64744         0.071799      0.543973     -0.341529
Ti      13.69843     13.59254      2.45908        -0.618252      0.021791     -1.555642
Ti      13.59883     13.54412     15.79245         0.270634      0.402391     -1.623049
Ti       2.02513      1.95440      6.84483        -1.131287      1.252951     -1.569522
Ti       1.96684     13.63892      6.85172        -0.042019      0.013617     -0.980146
Ti      13.69453      2.06308      6.89894        -0.248128     -1.461495     -1.790230
Ti      13.72283     13.61007      6.85517        -1.079216      0.242220     -1.489292
Ti       1.93569      1.89892     11.27889        -0.345575      0.600652     -1.123111
Ti       1.95644     13.73921     11.28591         0.475331     -1.447596     -0.550706
Ti      13.69524      1.89503     11.22305        -0.084216      0.451930     -1.169084
Ti      13.65594     13.59490     11.28827        -0.573326      0.040873     -1.868700
Ti       1.84807      5.84491      2.39515         1.084268     -0.302363     -1.440290
Ti       1.96823      5.83723     15.71378        -0.792564     -0.026884     -1.143815
Ti      13.55254      5.91411      2.42095         0.987190     -0.322248     -2.084459
Ti      13.48900      5.81169     15.68536         1.974402     -0.676499     -0.842100
Ti       1.95449      5.89241      6.85816        -0.330768     -2.001059     -2.188487
Ti      13.60411      5.80016      6.84988         0.193421      0.817397     -2.209278
Ti       1.95693      5.74151     11.28945         0.550447      1.554467     -0.151511
Ti      13.66964      5.79044     11.26039        -0.912007      0.595904     -0.583812
Ti       1.89709      9.67013      2.41276         0.544702      0.692429     -0.651680
Ti       1.99263      9.70002     15.67347        -0.095810      0.588248     -1.243675
Ti      13.67529      9.74348      2.34960         0.628837     -0.704559     -0.632679
Ti      13.66054      9.63282     15.55970        -0.029351      0.334374     -0.561527
Ti       1.93869      9.77067      6.77875         0.080937     -0.563438     -1.145822
Ti      13.59566      9.76314      6.81235         0.852884     -0.411586     -2.614605
Ti       1.93746      9.77709     11.22534        -0.192215     -0.248673     -0.851634
Ti      13.63371      9.74867     11.29951         0.468006     -0.450045     -1.446991
Ti       5.77702      1.94241      2.41618         0.565252     -1.394395     -1.100650
Ti       5.84519      1.96583     15.62083         0.451592     -0.376065     -1.176378
Ti       5.88539     13.67156      2.46719         0.184269     -0.028412     -2.477300
Ti       5.75757     13.67094     15.58498         0.288103     -0.254453     -0.648170
Ti       5.81038      1.97367      6.82651         0.605379      0.166014     -1.274625
Ti       5.87103     13.63159      6.82658        -0.458932     -0.128506     -1.945247
Ti       5.79344      1.97570     11.18434         0.302312      0.123852     -0.517327
Ti       5.93498     13.59404     11.21391        -1.492166      1.039794      0.297241
Ti       5.79499      5.85467      2.45591         0.056173     -0.362123     -1.046433
Ti       5.87842      5.83483     15.65485        -0.858338     -0.389224     -0.597433
Ti       5.86425      5.86167      6.88423        -0.139503     -0.135040     -1.529260
Ti       5.82294      5.80564     11.34379         0.002869      0.314542     -1.724444
Ti       5.85623      9.75113      2.33600        -0.349806      0.025115     -0.599635
Ti       5.79114      9.71623     15.65771         0.396436      1.177398     -0.678349
Ti       5.86951      9.72788      6.84548        -0.801693     -0.437452     -1.296538
Ti       5.85719      9.72384     11.30043        -0.228271     -0.689168     -1.889151
Ti       9.76717      1.85526      2.44145        -0.715250      0.660613     -2.137900
Ti       9.72353      1.95938     15.67678        -0.513399     -1.215645     -0.630585
Ti       9.79221     13.65490      2.56521         0.014821     -1.001564     -1.982093
Ti       9.66088     13.61082     15.68946         0.387314      0.610747     -2.031105
Ti       9.73330      1.95419      6.91962        -0.463791      0.536629     -2.342566
Ti       9.77099     13.66839      6.85476         0.917665     -0.078138     -2.182413
Ti       9.76866      2.02354     11.26292        -0.048315     -0.758092     -1.260473
Ti       9.83764     13.61690     11.35910        -0.262604      0.275035     -0.990772
Ti       9.68072      5.74421      2.52032         0.314580      0.222498     -1.569895
Ti       9.72219      5.80297     15.70406        -0.302093      0.541708     -2.670656
Ti       9.72285      5.80925      6.85335        -0.180289      0.524108     -1.997683
Ti       9.73971      5.82001     11.26381        -0.324535      0.283642     -0.987615
Ti       9.75460      9.70550      2.44913        -0.297410      0.340232     -1.563479
Ti       9.78491      9.66481     15.61818        -0.366696      0.861958     -1.478264
Ti       9.79348      9.69965      6.82656        -0.237077     -0.356421     -0.651986
Ti       9.70245      9.74621     11.31319        -0.092983      0.006921     -1.656237
O       1.97453      1.89222      0.61623         0.215849      0.294207      0.555949
O       2.03684      1.84881     13.79087        -0.144828      0.262573      2.480723
O       1.98317     13.58377      0.69162         0.009202      0.305752      0.672218
O       1.73999     13.72446     13.84497         0.553578      0.266036      1.214268
O      13.66753      1.79818      0.52690        -0.118775      0.291195      1.605992
O      13.47337      1.80916     13.85297         0.492776      0.528776      1.527807
O      13.67979     13.65683      0.65231         0.141949     -0.001595      0.725796
O      13.62961     13.64050     14.00403        -0.049222     -0.306650      0.525428
O       2.06533      2.12134      5.06868        -0.300780     -0.642059      0.732336
O       1.99418     13.49293      5.07494        -0.069435      0.230667      0.324581
O      13.64575      2.09244      5.09810         0.100181     -0.119234      0.866134
O      13.65255     13.51053      5.07619         0.325701      0.502200      0.854119
O       1.91064      1.98426      9.48625         0.054338     -0.437068      0.882811
O       1.93847     13.67970      9.50548         0.337581     -0.014477      0.352883
O      13.78479      1.89162      9.43709        -0.102620      0.168269      0.457557
O      13.67092     13.48917      9.49378        -0.304767      0.420446      0.926206
O       1.84604      5.92719      0.58454         0.206096     -0.472899      1.115819
O       1.92943      5.89983     13.95547        -0.005578     -0.232636     -0.292892
O      13.78725      6.01182      0.57747        -0.919609     -0.461122      1.786216
O      13.61103      5.75491     13.92140        -0.357800     -0.044969      0.182056
O       2.02894      5.71155      5.06917        -0.255210      0.760825      0.776603
O      13.60728      5.65924      5.02461         0.157451      0.429326      1.461100
O       1.91293      5.88205      9.56643         0.071846     -0.391229     -0.853975
O      13.60529      5.81374      9.52020         0.270116      0.133607     -0.313200
O       2.01401      9.77598      0.66938        -0.202362     -0.199605     -0.167949
O       2.17390      9.57856     13.91547        -0.555777      0.271165      0.743552
O      13.69556      9.48577      0.57699        -0.425242      0.706411      1.395438
O      13.55900      9.60735     13.74659         0.498479      0.332555      1.686587
O       1.83289      9.59126      4.95760         0.353108      0.749935      1.928786
O      13.63378      9.66628      4.91906        -0.216547      0.418568      2.534443
O       1.94516      9.86798      9.40646         0.102208     -0.224779      1.469564
O      13.74914      9.77629      9.49239        -0.484147     -0.086187      0.961955
O       5.85959      1.76901      0.63250        -0.430913      0.379336      0.953633
O       5.87761      2.06826     13.78337         0.004242     -0.437451      1.648319
O       5.92491     13.82976      0.66894        -0.294510     -0.186049      1.268244
O       5.78626     13.62514     13.81508         0.019756      0.126433      0.433651
O       5.94080      1.86305      5.02701        -0.503188      0.684194      1.110121
O       5.75182     13.58799      5.02491         0.356916      0.217545      1.575884
O       5.76343      2.04401      9.37753         0.344084     -0.436564      1.144278
O       5.87292     13.75892      9.46503        -0.030326     -0.308383     -0.587847
O       5.84800      5.82920      0.68351         0.021837     -0.024495      0.493690
O       5.77900      5.76643     13.90233         0.534273      0.167332      0.275726
O       5.75013      5.78674      5.09617         0.352081      0.167142      0.439544
O       5.73258      5.70722      9.57760         0.232197      0.489440     -0.157342
O       5.88896      9.78949      0.58449         0.085809     -0.481179      0.606588
O       5.77133      9.76093     13.89447        -0.100990     -0.068826      0.410632
O       5.85159      9.69586      5.06983        -0.087054     -0.060612      0.568774
O       5.87724      9.71824      9.48457        -0.089393      0.195305      1.048771
O       9.67446      1.91323      0.62788         0.545164      0.006867      1.172723
O       9.61663      1.92403     13.88864         0.408757      0.241666      0.783674
O       9.86383     13.61340      0.76671        -0.418795     -0.235470      0.930165
O       9.76385     13.49906     13.88463        -0.229828      0.480018      1.007142
O       9.66189      1.90430      5.10139         0.391263     -0.141045      1.494574
O       9.87336     13.78661      5.02982        -0.415654     -0.368275      1.685096
O       9.72084      1.95660      9.50712        -0.079027      0.172912     -0.247812
O       9.85409     13.52220      9.59427        -0.042929      0.082683      0.154171
O       9.66167      5.72199      0.71119         0.103875      0.122059      0.815261
O       9.61591      5.84355     13.85629         0.230952      0.018214      1.810683
O       9.61227      5.93234      5.03841         0.556606     -0.542718      0.654039
O       9.81971      5.79268      9.52081        -0.220830      0.010639      0.121673
O       9.76697      9.89143      0.65924         0.020928     -0.533740      0.974757
O       9.64928      9.78955     13.81094         0.445904     -0.614430      1.589315
O       9.84838      9.67223      5.03787        -0.188330     -0.009837      1.436118
O       9.63263      9.91950      9.50401         0.310713     -0.555866      1.055186
O       3.80085      1.89267      2.77098         1.469682      0.357241      0.153064
O       3.98239      1.94050     16.04037        -0.524057     -0.112322     -0.001149
O       3.87783     13.68058      2.81239         0.084999     -0.470250      0.219377
O       3.82779     13.67751     16.02179         0.118418      0.351667     -0.099631
O      15.57823      1.80326      2.69528        -0.335964      0.590605      0.499105
O       0.04557      1.92754     16.11511        -0.297981      0.342291     -0.896313
O       0.02946     13.71085      2.87213         0.236662     -0.674248      0.087039
O      15.56723     13.65189     16.07362         0.421709     -0.065451      0.281858
O       3.85539      2.03834      7.31661         1.058034     -0.619289     -0.456183
O       3.88628     13.63114      7.25038         0.914625      0.304889      0.241518
O      15.56143      2.10009      7.28363         0.500563     -0.843833     -0.195422
O       0.02369     13.71495      7.22372         0.004758     -0.423231     -0.238864
O       3.86798      1.89259     11.63312         0.297373      0.062651     -0.218131
O       3.90087     13.59559     11.64101        -0.431130      0.573673     -0.301232
O       0.04412      1.95180     11.70092        -0.358198      0.083246     -0.082998
O      15.50885     13.57916     11.65094         0.603443      0.328541      0.065987
O       3.86034      5.75380      2.85427         0.290958      0.242565     -0.457043
O       3.90245      5.72435     16.04672         1.250514      0.956803      0.183453
O       0.03099      5.73721      2.90531        -0.780453      0.864422     -0.614604
O      15.57301      5.69090     15.98839         0.448479      0.583862      0.152452
O       3.93403      5.80132      7.24746        -0.466693      0.559885      0.196113
O       0.00550      5.87862      7.17724        -0.588809     -0.104398      0.334847
O       3.89475      5.77604     11.70127        -0.575419      0.344133      0.153488
O      15.56896      5.75738     11.75060         0.306605      0.246135     -0.522838
O       3.96592      9.57151      2.76188         0.195491      0.591558      0.257207
O       3.88868      9.68773     16.24831         0.383072      0.253061     -0.835201
O       0.01604      9.71561      2.67323        -1.004028     -0.121212      0.302872
O       0.00657      9.74476     16.04985         0.088525     -0.540927     -0.635378
O       3.79165      9.78410      7.12011         0.581725     -0.243508      0.278203
O      15.53760      9.72874      7.31269         0.554721     -0.051395     -0.686255
O       3.91628      9.72830     11.69423        -0.177375      0.196896     -0.468998
O      15.58438      9.82612     11.63686         0.561326     -0.314264      0.125556
O       7.77202      1.90638      2.70053         0.351945     -0.293424      0.653416
O       7.75950      1.94016     16.21984         0.400512      0.235912     -1.144762
O       7.80474     13.58984      2.90568         0.021973      0.290323     -0.065200
O       7.67611     13.54704     15.96750         1.459423      0.408183     -0.002709
O       7.77008      2.09511      7.21522         0.108498     -0.996922      0.456215
O       7.83631     13.68538      7.27965        -0.667904      0.128492     -0.425484
O       7.83456      1.99852     11.60811        -0.741135     -0.350654     -0.008079
O       7.75279     13.69176     11.65631         0.976123     -0.067310     -0.200530
O       7.75121      5.70299      2.97144         0.033255      0.085025     -0.877701
O       7.78942      5.79305     16.18926        -0.155306      0.672909     -0.834585
O       7.80671      5.98886      7.21353        -0.694137     -0.605248      0.390939
O       7.71711      5.78360     11.56062         0.871405     -0.031302      0.723865
O       7.82916      9.75428      2.90126        -0.663728     -0.561148     -0.728143
O       7.75156      9.70986     15.99769         0.871024      0.054422      0.013679
O       7.74853      9.56280      7.22970         1.225755      0.843505     -0.316969
O       7.76894      9.61730     11.75060         0.027754      1.106171     -0.282137
O      11.74300      1.84197      2.77462        -0.085125      0.186889     -0.153675
O      11.62120      1.89521     16.16446         0.294432      0.575683     -0.723014
O      11.80948     13.57441      2.77020        -1.041724      0.346242      0.614507
O      11.63526     13.66112     16.19649         0.600070     -0.422998     -0.460010
O      11.70070      1.99161      7.28460        -0.788176     -0.106695     -0.208874
O      11.66320     13.67265      7.30125         0.037205     -0.468479     -0.016704
O      11.74157      1.86924     11.50864        -0.702886      0.782989      0.639696
O      11.73431     13.61233     11.84212        -0.194007      0.120920     -0.685023
O      11.74171      5.85659      2.88819        -0.979867     -0.175695     -0.555737
O      11.59016      5.82018     16.07026         0.382742     -0.125294      0.121245
O      11.67484      5.84246      7.26157         0.385460     -0.533579     -0.065356
O      11.65794      5.94970     11.67758         0.389534     -0.991257     -0.067525
O      11.64386      9.70525      2.85790         0.272160     -0.142130     -0.523546
O      11.72490      9.67800     15.96360        -0.442630     -0.000444      0.048373
O      11.77470      9.73865      7.31040        -1.493823      0.335510     -0.344397
O      11.67509      9.66937     11.69535        -0.485318      0.264274     -0.587412
O       1.79683      3.86182      2.74495         0.705308      0.493142     -0.090913
O       2.14186      3.91728     16.04312        -0.985395     -1.306497      0.094231
O       1.94494      0.03939      2.88053        -0.097802     -1.107552     -0.033490
O       1.89115      0.04942     16.18525         0.539604     -0.276690     -0.684203
O      13.64493      3.92745      2.72300        -0.095850     -0.976485     -0.218831
O      13.58905      3.84572     16.13677        -0.334027     -0.298684     -0.305103
O      13.70605     15.58534      2.96036        -0.309135     -0.122537     -0.665172
O      13.69353     15.54903     16.10565        -0.532342      0.585706     -0.251197
O       1.92805      3.89558      7.19870         0.004374      0.480700      0.800375
O       1.94563      0.01774      7.11091         0.216779     -0.248302      0.415435
O      13.63040      3.92572      7.32202         0.062113      0.284412      0.053917
O      13.58506      0.02969      7.27608         0.471129     -0.314707     -0.286415
O       2.00675      3.88827     11.67900        -0.482176     -0.683092      0.046668
O       1.86443     15.55407     11.71021         0.320070      0.305067     -0.452256
O      13.61489      3.84662     11.53090        -0.062730      0.487415      0.769597
O      13.63507      0.06401     11.66689         0.160290     -1.748338     -0.127535
O       1.93281      7.79553      2.79431        -0.093548     -1.553576      0.116968
O       2.08375      7.77449     16.08152        -0.560840     -0.268169     -0.077009
O      13.54489      7.79107      2.85509         0.720997     -0.202797     -0.099562
O      13.63395      7.72034     16.03518        -0.121809      0.374552     -0.409935
O       1.94239      7.73031      7.25826         0.000050      1.432771     -0.072704
O      13.51038      7.75331      7.16069         0.749139      0.242019      0.317954
O       1.94694      7.75088     11.58626        -0.200714      0.671200      0.289330
O      13.70685      7.77502     11.64511        -0.092743     -0.253140     -0.042255
O       1.97891     11.60645      2.83695         0.093608      0.996511      0.228236
O       1.96885     11.70114     15.93616        -0.043052      0.047655      0.405345
O      13.64869     11.66332      2.77509         0.332279     -0.253385     -0.163827
O      13.70790     11.60858     16.14900        -0.691752      0.199165     -0.688317
O       2.01882     11.72871      7.33806        -0.743911     -0.209963     -0.723117
O      13.68102     11.69804      7.16562        -0.103693     -0.104180      0.182773
O       1.96194     11.68104     11.81831        -0.293418      0.038462     -0.853589
O      13.53942     11.67083     11.69988         0.206764      0.368248      0.008575
O       5.86904      3.78012      2.84765        -0.521135      0.798509     -0.422725
O       5.90362      3.93076     16.07768        -0.107467     -0.516142     -0.105682
O       5.73983     15.54027      2.94367         0.493340      0.665262     -0.114942
O       5.87766     15.59561     15.94049        -0.163764      0.375726     -0.065686
O       5.87060      3.94176      7.31460        -0.217719     -0.092060     -0.571889
O       5.87160      0.07383      7.10042        -0.141834     -0.915374      0.749848
O       5.76214      3.88673     11.71006         0.389238     -0.865931     -0.123440
O       5.81194      0.06074     11.62601         0.346566     -0.124241     -0.220040
O       5.90202      7.72545      2.82860        -0.072714     -0.105196     -0.337363
O       5.87369      7.81742     16.03555        -0.193357     -1.195259     -0.160545
O       5.80445      7.80473      7.32386        -0.420384     -0.312658     -0.121051
O       5.86676      7.79481     11.67273        -0.262302     -0.177035      0.094101
O       5.77255     11.71628      2.62068         0.176218     -0.786962      0.851818
O       5.78520     11.70520     16.09557        -0.244103     -0.232554     -0.436811
O       5.91574     11.65823      7.07563        -0.218510      0.865213      0.635391
O       5.84621     11.73025     11.65334         0.103812     -0.567995     -0.562469
O       9.89682      3.81342      2.72985        -0.689769     -0.028647      0.459985
O       9.63471      3.94864     16.01002         0.560853     -1.140585      0.227398
O       9.78056     15.55418      2.82212        -0.134235      0.060544      0.130690
O       9.81965     15.57060     15.99959        -0.891691      0.092960      0.002652
O       9.66412      3.95679      7.23283         0.432750     -1.210323      0.198098
O       9.74555     15.54952      7.41479        -0.576039      0.830867     -0.695094
O       9.70526      3.88781     11.73284         0.578124      0.113646     -0.128565
O       9.86103     15.56848     11.63593        -1.033321      0.071479      0.054048
O       9.62922      7.67366      2.74534         0.417403      0.875882      0.180132
O       9.77437      7.78613     16.18444        -0.555386      0.018787     -0.796068
O       9.83484      7.68913      7.21596        -0.038586      2.218452      0.444188
O       9.62743      7.78131     11.61749         0.346072     -0.037283      0.135667
O       9.71687     11.62206      3.04479         0.333848      0.387962     -0.757381
O       9.82394     11.69935     16.05555        -0.405396     -0.707306     -0.127310
O       9.71785     11.63367      7.22238         0.031881      0.234078     -0.311914
O       9.77078     11.68522     11.71349        -0.214679     -0.090334     -0.019488
