  # total energy = -7877.86970304 
CRSYTAL
PRIMVEC
    15.2000000000000000    0.0000000000000000    0.0000000000000000
     0.0000000000000000   15.2000000000000000    0.0000000000000000
     0.0000000000000000    0.0000000000000000    17.000000000000000
PRESSURE
7.66728 7.9096 3.65987 0.021201 0.162453 0.00109
PRIMCOORD
320 1
Pb       3.92021      3.67307      4.17487        -0.602502     -0.205679     -0.193233
Pb       3.59181      3.64905     16.87379         0.731995     -0.153789      0.827456
Pb       4.00831     14.93618      4.08922        -1.026470      0.786075      0.263265
Pb       3.62983     15.13271     16.90925        -0.004248      0.510678      0.252468
Pb      15.17925      3.51031      4.21355         0.070269      0.859282     -0.127670
Pb      15.07577      3.92786     16.97135        -0.155102     -0.691194      0.006773
Pb      15.12940     14.88207      4.15702         0.376552      1.428867      0.428519
Pb      15.06497      0.01569      0.10067         0.054086      0.053992     -0.373965
Pb       3.46848      3.94400      8.52343         0.795205     -1.013724      0.528731
Pb       3.80497      0.09101      8.30332        -0.483231     -0.235386      0.235919
Pb      15.14212      3.82079      8.38638         0.299783     -0.391676      0.520311
Pb       0.12117      0.11888      8.21550        -0.103985     -0.399166      0.825219
Pb       3.73207      3.77518     12.74376         0.323487      0.029401      0.100089
Pb       3.78159      0.03613     12.71867        -0.576079     -0.295481      0.424576
Pb      15.04960      3.93887     12.76751         0.711101     -0.767060      0.403435
Pb      15.05101     15.18903     12.65382         0.377336      0.164905      0.265516
Pb       3.90743      7.43045      4.14736        -0.511086      0.387859     -0.384787
Pb       3.61344      7.47119     16.85272         0.439745      0.541863      1.174044
Pb      15.19545      7.40462      4.27932        -0.185206      0.393461     -0.237495
Pb      15.03336      7.51090      0.17940         0.146487      0.382965     -0.704545
Pb       3.78774      7.50024      8.58545         0.342601      0.571239     -0.127479
Pb       0.09390      7.68151      8.47210        -0.030612      0.226275      0.282258
Pb       3.77479      7.76643     12.87394         0.111369     -0.426445     -0.386088
Pb      15.18021      7.77887     12.89077         0.252801     -0.448754     -0.588266
Pb       4.10442     11.28096      4.13756        -0.911967     -0.160784     -0.396805
Pb       3.66081     11.39208     16.71366        -0.224943      0.163606      1.210284
Pb       0.12171     11.23713      4.22804        -0.380888     -0.118696     -0.109980
Pb      15.01469     11.35393      0.00458         0.907577      0.266890      0.518872
Pb       3.81356     11.41628      8.43264         0.189754     -0.147458      0.241814
Pb       0.19855     11.40637      8.36959        -1.197184     -0.327926      0.460724
Pb       3.90590     11.61067     12.63064        -0.176009     -0.611938      0.687661
Pb       0.03966     11.58877     12.74057         0.066918     -0.329695      0.000305
Pb       7.61597      3.87165      4.37037        -0.074547     -0.649225     -0.080382
Pb       7.56098      3.77662     16.90515         0.086005     -0.281802      0.049370
Pb       7.58418     15.16533      4.24369         0.308912      0.035162     -0.391772
Pb       7.50700     15.18953     16.87454         0.659821      0.403079      0.126989
Pb       7.28616      3.74575      8.72773         0.864513      0.276734     -0.200411
Pb       7.53782      0.06169      8.65270         0.426430     -0.207445     -0.751830
Pb       7.65054      3.74015     12.69655        -0.462310      0.445832      0.272015
Pb       7.50648     15.03192     12.73950         0.463893      0.719087      0.242750
Pb       7.44015      7.51936      4.12100         0.557092      0.591221      0.236993
Pb       7.77939      7.48244      0.03716        -0.240076      0.036906     -0.624258
Pb       7.51753      7.49974      8.61112         0.118618      0.402345     -0.768226
Pb       7.64929      7.63599     12.72567        -0.016108     -0.157101      0.361148
Pb       7.65161     11.50809      4.26607         0.374426     -0.585239     -0.369917
Pb       7.40560     11.32234     16.98030         0.921820      0.195943     -0.530210
Pb       7.67899     11.29598      8.58932        -0.005857     -0.007466     -0.602662
Pb       7.73425     11.53535     12.77909        -1.277930     -0.677060      0.587393
Pb      11.26758      3.80633      4.39920         1.234835     -0.751246      0.585847
Pb      11.29734      3.86645     16.91674         0.667675     -0.568071      0.684252
Pb      11.29034     15.16599      4.28693         0.095783      0.190522     -0.164762
Pb      11.28913      0.13943      0.07170         0.060982     -0.127216     -0.041099
Pb      11.33823      3.81199      8.49329         0.157686     -0.128384     -0.267546
Pb      11.51651     15.15017      8.59763        -0.257585      0.436908     -0.839086
Pb      11.44230      3.80781     12.58792        -0.261498     -0.118090      0.795774
Pb      11.37746      0.01585     12.63802        -0.149383     -0.225440      0.330282
Pb      11.27935      7.36953      4.32695         0.640565      1.181040      0.157896
Pb      11.45139      7.66049      0.09020         0.098738     -0.335748     -0.241718
Pb      11.49354      7.64248      8.53676        -0.427928      0.197691     -0.471615
Pb      11.56684      7.78687     12.78928        -0.877725     -0.386845     -0.440138
Pb      11.39958     11.48648      4.28569        -0.875245     -0.319827      0.093566
Pb      11.35023     11.24604      0.09590        -0.265818      0.423396     -0.062590
Pb      11.46647     11.32004      8.36332        -0.101573     -0.081332      0.000266
Pb      11.49265     11.40052     12.74967        -0.440127      0.454097     -0.436187
Ti       1.87180      1.77463      2.25857         0.282623     -0.243600     -0.056679
Ti       1.79529      1.88866     14.94318        -0.406091     -0.990797     -0.526424
Ti       1.83706     13.12820      2.21861         0.441970      1.276779     -0.369018
Ti       1.76648     13.38128     14.95614        -0.521319     -0.162732      0.623335
Ti      13.22884      1.85299      2.28344        -0.128899     -0.097215      0.512196
Ti      13.17995      1.87567     15.01227         0.659366      0.152321     -0.021053
Ti      13.17046     13.20853      2.32021        -0.448892      1.250371     -0.512624
Ti      13.10809     13.27256     15.06996         1.443487      1.577529     -0.549167
Ti       1.94482      1.96743      6.35818         0.004433     -0.759919     -0.476748
Ti       1.90733     13.18021      6.32933         0.225818      1.986080     -0.512105
Ti      13.32663      1.87181      6.34727        -1.042615     -0.132349      0.228691
Ti      13.28730     13.28432      6.46727        -0.667099      0.164614      0.170472
Ti       1.89737      1.90475     10.75536        -0.287548     -0.820781     -0.382113
Ti       1.86291     13.34315     10.58628        -0.207504      0.454531      1.074695
Ti      13.33832      1.90066     10.65787        -0.084604     -0.424219     -0.400974
Ti      13.28866     13.25443     10.58313         0.049456      0.337837      0.736241
Ti       1.88729      5.60042      2.22048        -0.370043     -0.934412     -0.684978
Ti       1.94032      5.69126     14.97987        -1.810706     -0.251422      0.469447
Ti      13.29672      5.66100      2.34364         0.628250     -1.141621      0.398062
Ti      13.22115      5.74593     14.92099         0.803170     -0.210614      2.479125
Ti       1.91116      5.79024      6.41019        -0.613045     -1.406722      0.153357
Ti      13.35214      5.71369      6.55747         0.028021     -0.549389     -1.305979
Ti       1.85355      5.76056     10.90401         0.315374     -0.055613     -0.807281
Ti      13.32186      5.73926     10.67258         0.000625      0.092920      1.172758
Ti       1.90914      9.36248      2.24000         0.221698      0.488278     -1.485422
Ti       1.85286      9.50964     15.00103        -0.674495      0.760567     -0.558672
Ti      13.21940      9.45488      2.37732         0.042668     -0.576799      0.006048
Ti      13.30560      9.56711     14.97664        -0.272556     -0.823484      0.399173
Ti       2.02098      9.48503      6.36417        -0.670233     -0.347681      0.160718
Ti      13.36967      9.44741      6.43026         0.159925      1.022115     -0.098178
Ti       1.91912      9.55110     10.75807        -0.526385      0.413083     -0.224076
Ti      13.39122      9.53592     10.73386         0.178592      0.218248     -2.020579
Ti       5.68217      1.78643      2.06389         0.225485      0.418388      0.308527
Ti       5.71153      1.91423     14.89056        -0.968143     -0.098977      0.612014
Ti       5.65248     13.16705      1.97664         0.110688     -0.144713      2.660743
Ti       5.66535     13.33223     15.05560        -0.505424     -0.425162     -1.248493
Ti       5.77212      1.90779      6.50657        -0.390343     -0.505030      0.808968
Ti       5.72360     13.24005      6.48965         0.588333      0.132522      0.612695
Ti       5.67201      1.85588     10.84761         0.630171      0.892801     -0.499551
Ti       5.61931     13.30949     10.61946         0.078895     -0.520257      0.260226
Ti       5.67194      5.53985      2.05457        -0.204371      0.337955     -0.449774
Ti       5.68951      5.65323     15.02934         0.284886     -0.311328     -0.516367
Ti       5.63840      5.59377      6.64021         1.139804      0.788453      0.105661
Ti       5.64756      5.70275     10.86326        -0.325278     -0.100029     -0.179801
Ti       5.72025      9.34383      1.92667        -0.597259      1.395703      1.758273
Ti       5.71136      9.41231     14.98295        -0.033551      0.039238     -0.060762
Ti       5.76427      9.51271      6.51936         0.269764     -0.949818      1.085931
Ti       5.69223      9.41528     10.76097         0.533414      1.272535     -0.187076
Ti       9.43844      1.94588      2.29610         0.275555     -0.644814     -0.596311
Ti       9.45212      1.90471     14.90594         0.799305     -0.377212      0.482591
Ti       9.35898     13.28109      2.12989         1.297339     -0.672274      0.083129
Ti       9.48482     13.20636     15.07745        -1.266482      0.570969      0.835144
Ti       9.51976      1.88016      6.63612         0.325717     -0.034384     -0.068036
Ti       9.46520     13.31259      6.62534         0.231310     -0.275371      0.201802
Ti       9.50772      2.07043     10.73684        -0.251404     -3.040599     -0.438080
Ti       9.42076     13.33920     10.70528         1.060590     -0.334627      0.292056
Ti       9.51999      5.64838      2.29733         0.250356      0.238546     -0.753183
Ti       9.56161      5.66615     14.90366        -0.746169      0.534222     -1.050047
Ti       9.44838      5.70612      6.65470        -0.261893     -0.103439      1.952140
Ti       9.50716      5.80056     10.70901        -0.018412     -0.356911     -0.290435
Ti       9.47862      9.42384      2.13962        -0.065587      1.325850      1.087401
Ti       9.48130      9.41515     15.00778         0.460514      0.742387     -0.064795
Ti       9.52782      9.41269      6.35294        -0.290717      0.716329      2.047759
Ti       9.50591      9.51407     10.78192         0.271820      0.178827      0.909769
O       1.88361      1.71991      0.44930         0.289088      0.378349      0.160085
O       1.90827      1.70032     13.14875        -0.249477      0.780289      0.722589
O       1.85948     13.34618      0.43764        -0.042177     -0.296514      0.070321
O       1.79370     13.35269     13.18811        -0.158309     -0.045291      0.262910
O      13.21475      1.89769      0.51527        -0.129039     -0.180323     -0.460970
O      13.16389      1.78023     13.22935         0.121805      0.317443      0.006454
O      13.18920     13.24280      0.54792        -0.199778     -0.122021     -0.260198
O      13.22712     13.29391     13.25020        -0.201301     -0.087482      0.892274
O       1.87677      1.91585      4.58298         0.242150      0.000604      0.721878
O       1.81997     13.10486      4.52331         0.504540      0.345926      1.191963
O      13.22910      1.77726      4.54516         0.573154      0.209736      0.970004
O      13.07019     13.25354      4.66686         0.711162      0.266941      0.264778
O       2.01316      1.89697      8.94883        -0.342098     -0.020266      0.090756
O       1.99014     13.28123      8.83439        -0.213541      0.025629     -0.480582
O      13.32773      1.96355      8.86766        -0.299034     -0.176443      0.850057
O      13.28162     13.26356      8.81886         0.094543      0.069298      0.674537
O       1.88950      5.57280      0.36240        -0.332129      0.627959      0.781312
O       1.75213      5.73364     13.22539         0.591883     -0.246413     -0.168254
O      13.26946      5.67346      0.56320         0.127103      0.249003     -0.240371
O      13.27745      5.77834     13.20372        -0.226120     -0.278383     -1.219968
O       1.86222      5.67429      4.65011         0.529762      0.134350      0.231953
O      13.38224      5.73579      4.72460        -0.024370      0.048607      1.075304
O       1.91548      5.69528      9.05406        -0.031541      0.318896      1.068140
O      13.46005      5.56304      8.93846        -0.424376      0.561856     -0.359968
O       1.80385      9.39933      0.37799         0.433510     -0.161560      1.112625
O       1.62768      9.48274     13.16414         1.069962      0.354682      1.261606
O      13.16088      9.44108      0.52369         0.569374      0.197345      0.767990
O      13.35147      9.54703     13.16132        -0.210588     -0.140328      0.464337
O       2.02068      9.40970      4.59206        -0.044937      0.291386      0.059833
O      13.44178      9.45074      4.63335        -0.331030     -0.069479      0.436500
O       1.81281      9.64990      8.94502         0.607679     -0.511678      0.760549
O      13.46400      9.58787      8.84335        -0.493540     -0.250897      1.788025
O       5.71286      1.84773      0.28625         0.098716     -0.138080      1.047495
O       5.67747      1.98556     13.10506         0.050908     -0.138199     -0.187829
O       5.57725     13.22049      0.27275         0.193061      0.135606     -1.469857
O       5.68328     13.40725     13.24743        -0.106999     -0.680625     -0.213731
O       5.80711      2.00005      4.75709         0.123222     -0.214803     -0.085077
O       5.74826     13.16242      4.68063         0.354467      0.048157     -0.027105
O       5.83446      1.90370      9.03932        -0.722453     -0.682008      0.178043
O       5.64723     13.25241      8.85252         0.032659      0.308898      0.754111
O       5.75991      5.53143      0.29305        -0.109018      0.664457      0.858833
O       5.55430      5.56402     13.25753         0.373195      0.353156     -0.172899
O       5.78070      5.50698      4.87831        -0.512117      0.288793     -1.118936
O       5.59578      5.69593      9.02497        -0.024368      0.338734      0.389768
O       5.74460      9.43974      0.21010        -0.300995     -0.278434     -0.968519
O       5.73342      9.24105     13.19978        -0.022205      0.793934      0.180566
O       5.72428      9.58099      4.74517         0.224660     -0.557429      0.227389
O       5.67023      9.37106      8.96475         0.001936      0.281304      0.504759
O       9.44785      2.03838      0.49740        -0.056655     -0.216605      1.002737
O       9.51636      1.95089     13.14826         0.101479      0.073837     -0.170200
O       9.40108     13.20563      0.36505         0.008548      0.237832      0.270353
O       9.38198     13.34233     13.32017         0.016104     -0.210188     -0.881608
O       9.55010      1.92108      4.84197        -0.864228     -0.328905     -0.324349
O       9.38077     13.25646      4.84207        -0.184494      0.291657     -0.675115
O       9.57871      1.98892      8.94048        -0.067002     -0.171755      0.330511
O       9.41126     13.16151      8.93828         0.382862      0.261350      0.674124
O       9.57544      5.64652      0.49591        -0.502931      0.137817      1.103513
O       9.58991      5.72185     13.09713         0.014617     -0.169860      0.879706
O       9.53475      5.76825      4.91568        -0.443078     -0.184487     -2.105564
O       9.52175      5.65492      8.88810         0.139103      0.495918      1.283102
O       9.62607      9.37571      0.33896        -0.685319      0.100135      0.526258
O       9.49651      9.30157     13.21437         0.188412      0.506049      0.046426
O       9.39018      9.38538      4.65006        -0.231982     -0.147694     -1.041015
O       9.54848      9.54619      9.05444         0.144407      0.031427     -0.663684
O       3.87954      1.72558      2.71938         0.064118      0.170245     -0.705307
O       3.85642      1.80191     15.34173        -1.425085      0.358539     -0.500696
O       3.84137     13.19741      2.58667        -0.063032      0.007034     -0.502567
O       3.68761     13.38648     15.20716         0.164356     -0.771038      0.369070
O       0.03133      1.78699      2.50044        -0.909779     -0.025941      0.390933
O      15.08639      1.87316     15.30657         0.610173     -0.278102      0.062522
O      15.12624     13.24500      2.62298        -0.161007     -0.995146     -0.467713
O      15.02263     13.47936     15.42928         0.618223     -0.672170     -0.363269
O       3.79979      1.94376      6.79496         0.110404     -0.356425     -0.200460
O       3.84257     13.23930      6.81269        -0.800121      0.025001     -0.567124
O       0.01470      1.95674      6.77086         0.637648     -0.447949     -0.224505
O      15.15834     13.32689      6.69997         1.575666     -0.251569     -0.175616
O       3.84285      1.85075     11.13962        -0.735704      0.533909     -0.075994
O       3.69284     13.32779     11.13116         1.418664     -0.350733     -0.495547
O      15.18604      1.87380     11.01208        -0.111450     -0.166604      0.219922
O       0.01820     13.38253     11.07488        -1.308091     -0.202935     -0.415086
O       3.75284      5.56422      2.52790         1.732302      0.750243      0.241782
O       3.76392      5.53191     15.44942        -1.011577      0.309802     -0.754132
O       0.02766      5.56582      2.64471        -0.326045      0.520230     -0.297618
O      15.11036      5.78766     15.42860         0.585840     -0.154402     -0.303576
O       3.77944      5.73201      6.99800        -0.921443     -0.105828     -0.734628
O       0.08064      5.69668      7.02464        -0.222706      0.693863     -0.926253
O       3.75915      5.72013     11.27617        -0.367768     -0.161467     -0.297725
O      15.16791      5.70904     11.25438         0.170118     -0.210683     -0.504378
O       3.82595      9.46891      2.49287         0.372350     -0.610712      0.060860
O       3.74486      9.65751     15.21609        -0.457201     -0.740162     -0.359374
O       0.03005      9.40372      2.58455        -0.654364      0.133484     -0.053304
O      15.14346      9.52599     15.42726        -0.223432     -0.523934     -0.232412
O       3.82030      9.53255      6.93508         0.381370     -0.195562     -0.497023
O       0.08053      9.57687      6.86547         0.538544     -0.110880     -0.753780
O       3.82189      9.55189     11.17544        -0.738372      0.245505     -0.068948
O       0.00428      9.39167     11.13579         0.162950      0.609878     -0.268114
O       7.54460      1.98084      2.61747         0.014308     -0.121643      0.083557
O       7.58270      1.91439     15.23459         0.100645      0.113784      0.240137
O       7.53877     13.13552      2.51657        -0.222389      0.153603      0.100825
O       7.50952     13.35412     15.42246         0.874001     -0.693290     -0.109103
O       7.61552      1.91725      7.06046        -0.518216      0.105403     -0.618735
O       7.67269     13.21675      6.99877        -1.636231      0.011652     -0.225717
O       7.62423      1.85663     11.19672        -0.096230      0.140921     -0.441568
O       7.51249     13.28052     11.12724         0.663107      0.434187     -0.338925
O       7.64083      5.54151      2.59768        -0.837148      0.325038     -0.111764
O       7.61143      5.70575     15.25106         0.053798      0.379429      0.244148
O       7.56005      5.59460      7.02633         0.248958      0.087443     -0.342361
O       7.56120      5.73780     11.13487         0.699740      0.332934     -0.292047
O       7.56635      9.35008      2.42150        -0.082959      0.289568     -0.193658
O       7.61134      9.30969     15.35290        -0.840143     -0.105034     -0.049067
O       7.64087      9.40149      6.99801        -0.519320      0.413132     -0.543281
O       7.61047      9.43397     11.07659        -0.270505     -0.133605      0.065472
O      11.30651      1.83327      2.65440         0.139273     -0.060547     -0.224622
O      11.31853      2.01006     15.40229        -0.187219     -0.244137      0.005833
O      11.21406     13.34421      2.74666         0.843733     -0.753755     -0.634680
O      11.24916     13.10113     15.44429         1.675080      0.542973     -0.079754
O      11.46266      1.79238      6.72952        -0.214303      0.382904      0.735151
O      11.38983     13.33348      6.96377         0.222944      0.116253     -0.156256
O      11.36468      1.84662     11.12354         0.519977      0.782140     -0.462662
O      11.36717     13.16182     11.08992         0.155980      0.369774     -0.434926
O      11.45976      5.68529      2.74211        -1.942127     -0.379316     -0.192886
O      11.37241      5.66330     15.35525         0.303775      0.220278     -0.175432
O      11.49631      5.80643      6.87893        -0.174157     -0.115598      0.273242
O      11.43134      5.68956     10.89424         0.092380     -0.411303      0.317888
O      11.34618      9.36532      2.58576         0.322657     -0.073754      0.091921
O      11.41457      9.57146     15.35712         0.042615     -0.114621     -0.404159
O      11.46408      9.39637      6.73304         0.068970     -0.034926      0.278556
O      11.48688      9.52453     11.04675        -0.458557      0.120265      0.461242
O       1.94022      3.70765      2.57047         0.081450     -0.268639     -0.068011
O       1.73159      3.73181     15.34304         0.643328      0.842201     -0.443821
O       1.86672     15.06585      2.57699         0.425572      0.126785      0.393615
O       1.88756      0.05125     15.38420        -0.545165     -0.710737     -0.135283
O      13.33495      3.69156      2.65047        -0.362057      0.809136      0.032195
O      13.22510      3.82806     15.39594         0.360242      0.447225     -0.569481
O      13.23093     15.10305      2.63369         0.068740      0.285394     -0.110513
O      13.10521      0.03111     15.47341        -0.519403     -0.841943     -0.086307
O       1.78583      3.86820      6.80644         1.067717     -0.604266     -0.150582
O       1.91786     15.17296      6.67622         0.209048      0.133823      0.079484
O      13.39006      3.77478      6.72297        -0.356714      0.484362      0.180873
O      13.35823      0.02963      6.89169        -0.123154     -0.430434     -0.303566
O       1.92871      3.74138     11.16860        -0.281572      1.064821     -0.004016
O       1.91141     15.19173     11.04796         0.003086      0.139647     -0.147289
O      13.33598      3.71784     11.24767        -0.331877      1.284023     -0.913432
O      13.20804     15.18546     11.04543         0.046089     -0.422748     -0.413173
O       1.94742      7.45216      2.62902         0.020096      0.945983     -0.217596
O       1.95550      7.62918     15.25789        -0.137351     -0.814316     -0.137416
O      13.23999      7.50387      2.72504         0.764732      0.914786     -0.508519
O      13.22045      7.65990     15.48518         0.066163     -0.359506     -0.789763
O       1.91356      7.63279      6.71563         0.078447      0.104644      0.507619
O      13.51025      7.63267      6.92000        -0.460379     -0.592501     -0.171490
O       1.89083      7.66142     11.12744         0.214488     -0.625362     -0.116089
O      13.33683      7.61309     11.07211        -0.359414     -0.371657     -0.299115
O       1.90106     11.31789      2.50716        -0.191828     -0.944787      0.077485
O       1.66996     11.44811     15.43541         0.426775      0.090838     -0.736654
O      13.12939     11.35201      2.68766         0.539469     -0.610455     -0.263110
O      13.24600     11.41607     15.44937         0.251942     -0.329379     -0.277403
O       1.94858     11.39202      6.74881        -0.031173     -0.316074     -0.045928
O      13.32651     11.42872      6.75176        -0.302925     -0.742164     -0.055824
O       1.76914     11.44454     11.10037         0.467401     -0.169094     -0.142567
O      13.35937     11.42466     11.13223         0.157212      0.026549     -0.245703
O       5.58320      3.75276      2.46838         0.454412     -0.675954      0.098630
O       5.59628      3.76140     15.43898         0.703333     -0.297212     -0.759208
O       5.81697     15.06138      2.43177        -0.143535      0.673533      0.235462
O       5.75586     15.17408     15.21762        -0.218842      1.117793      0.416665
O       5.61041      3.71219      7.05179         0.230403      0.553679     -0.364546
O       5.75544     15.08083      6.78432         0.117738      1.960595      0.124198
O       5.76499      3.85206     11.05565        -0.341515     -1.026243      0.278079
O       5.63906     15.17898     11.05943         0.402731     -0.423380     -0.050723
O       5.71407      7.53025      2.38284        -0.284763     -1.538341      0.618050
O       5.37872      7.51722     15.32692         0.718241      0.472835     -0.272506
O       5.73303      7.50640      6.88312        -0.317356      0.986935     -0.085853
O       5.60193      7.60961     11.13967         0.132832     -0.436935     -0.008343
O       5.71798     11.27394      2.37420         0.029086      0.275413      0.048884
O       5.66566     11.34381     15.30039         0.431576      0.131558     -0.239387
O       5.77292     11.42402      6.94673        -0.077808     -1.795858     -0.266140
O       5.77603     11.46220     11.14092        -0.781460     -0.645569     -0.254298
O       9.59836      3.80018      2.94594        -0.954729      0.422825     -1.594694
O       9.46746      3.81085     15.39727        -0.237810      0.325719     -0.609345
O       9.40457     15.12214      2.57966        -0.667371      1.315720      0.061971
O       9.54360      0.05006     15.42793        -0.380428     -0.389828     -0.251454
O       9.62717      3.79802      6.91642        -0.009852      0.211344     -0.404333
O       9.43134      0.01009      6.98829         0.174568     -0.196543      0.070797
O       9.44374      3.82943     11.04543         0.313366      1.470564      0.289322
O       9.50330     15.18886     11.13247        -0.268242     -0.665776     -0.723037
O       9.40124      7.60862      2.65389         0.350985     -2.330995     -0.129908
O       9.63308      7.58667     15.40570        -0.440900     -1.299407      0.008173
O       9.51770      7.60259      6.98877         0.006760     -0.329838     -0.016078
O       9.59912      7.60476     11.15919        -0.159030      0.075339     -0.507168
O       9.53185     11.29790      2.59779        -0.414371      0.333345     -0.274846
O       9.37940     11.31607     15.38249        -0.373757      0.035606     -0.304868
O       9.57394     11.32096      6.76955        -0.098381     -0.291356      0.322825
O       9.41819     11.39257     11.35768         0.693235      0.121666     -1.197306
