  # total energy = -7877.77987162 
CRSYTAL
PRIMVEC
    15.2000000000000000    0.0000000000000000    0.0000000000000000
     0.0000000000000000   15.2000000000000000    0.0000000000000000
     0.0000000000000000    0.0000000000000000    17.000000000000000
PRESSURE
7.79975 7.94658 4.87218 0.054889 0.103379 0.031124
PRIMCOORD
320 1
Pb       3.92304      3.67803      4.17632        -0.534935     -0.216361     -0.186572
Pb       3.58506      3.64789     16.88254         0.454755     -0.145381      0.674473
Pb       4.01294     14.92932      4.09346        -0.972492      0.977868      0.092017
Pb       3.63666     15.13004     16.91427        -0.063161      0.489926      0.326300
Pb      15.17736      3.52140      4.22171         0.179718      0.840188     -0.217870
Pb      15.07206      3.92692     16.97122        -0.171692     -0.827389     -0.194892
Pb      15.13254     14.87921      4.14778         0.439487      1.485652      0.409112
Pb      15.06893      0.01702      0.09666         0.110819      0.125968     -0.399658
Pb       3.46810      3.93307      8.52438         0.619912     -0.953175      0.247717
Pb       3.80233      0.10216      8.28481        -0.318523     -0.222481      0.449931
Pb      15.12864      3.82303      8.37568         0.536214     -0.510657      0.583430
Pb       0.12957      0.12147      8.22208        -0.155426     -0.384846      1.051111
Pb       3.73416      3.77185     12.75447         0.253314      0.173476      0.022141
Pb       3.78688      0.02901     12.71649        -0.600781     -0.196323      0.135146
Pb      15.05959      3.92105     12.77430         0.516913     -0.588985      0.256053
Pb      15.04797     15.17651     12.64773         0.514761      0.421784      0.253789
Pb       3.90806      7.42870      4.14613        -0.475303      0.427629     -0.325396
Pb       3.61831      7.46876     16.87167         0.351810      0.682134      0.755768
Pb      15.19821      7.39088      4.27389        -0.129917      0.708304     -0.139303
Pb      15.04641      7.51291      0.18794         0.301786      0.465521     -0.923783
Pb       3.78303      7.49528      8.58688         0.425850      0.706907     -0.076980
Pb       0.09180      7.68366      8.47198        -0.215238      0.200171      0.306592
Pb       3.77301      7.76755     12.88177         0.399441     -0.383484     -0.655434
Pb      15.17911      7.78221     12.89893         0.171866     -0.611134     -0.574388
Pb       4.10757     11.28944      4.13728        -1.001964     -0.507835     -0.454652
Pb       3.65539     11.39111     16.70012        -0.076357      0.196247      1.284995
Pb       0.11574     11.24025      4.23283        -0.153148     -0.346096     -0.396984
Pb      15.01512     11.35443      0.00761         0.992746      0.225857      0.310889
Pb       3.81441     11.41461      8.42322         0.095661     -0.234066      0.136357
Pb       0.18870     11.40330      8.37780        -0.986866     -0.354516      0.146054
Pb       3.90807     11.60869     12.62674        -0.131871     -0.974078      0.954111
Pb       0.03696     11.59424     12.72606         0.006092     -0.238060      0.256212
Pb       7.62003      3.87353      4.36571        -0.169240     -0.486981     -0.165888
Pb       7.56578      3.77898     16.90914         0.014743     -0.378621      0.169579
Pb       7.58328     15.17361      4.24428         0.250870      0.176582     -0.349208
Pb       7.50249     15.18895     16.88114         0.617474      0.342616      0.392539
Pb       7.28829      3.75233      8.72027         0.910587     -0.070347     -0.250835
Pb       7.53297      0.06163      8.64735         0.352066     -0.175453     -0.665038
Pb       7.64510      3.72838     12.69350        -0.439877      0.461815      0.132168
Pb       7.51324     15.04205     12.73916         0.492248      0.694493     -0.091849
Pb       7.42738      7.52004      4.13162         0.673575      0.435732      0.236702
Pb       7.77771      7.47117      0.03448        -0.289984      0.228265     -0.562751
Pb       7.52455      7.49794      8.61710        -0.026887      0.448373     -0.901500
Pb       7.66384      7.63408     12.73401        -0.373434     -0.199665      0.335951
Pb       7.65394     11.50845      4.25693         0.417306     -0.581918     -0.339064
Pb       7.40823     11.31595     16.98406         0.884832      0.238476     -0.652526
Pb       7.67514     11.28774      8.57540        -0.055040      0.156098     -0.723760
Pb       7.73605     11.53054     12.78278        -1.201803     -0.769977      0.603686
Pb      11.27749      3.80578      4.39646         0.740519     -0.523911      0.276217
Pb      11.30528      3.87885     16.91744         0.689050     -0.655606      0.627153
Pb      11.28870     15.16851      4.28932        -0.037944      0.071983     -0.342661
Pb      11.28713      0.13334      0.06843         0.052268     -0.171694     -0.071107
Pb      11.33601      3.80643      8.49133         0.107829      0.031947     -0.111656
Pb      11.51302     15.14744      8.60914        -0.332158      0.366283     -0.696386
Pb      11.44763      3.80382     12.58936        -0.104285     -0.038832      0.664230
Pb      11.37152      0.01706     12.64805        -0.144789     -0.159200      0.152518
Pb      11.28345      7.36719      4.32892         0.401363      0.982931      0.194360
Pb      11.44977      7.65798      0.09647        -0.059137     -0.222075     -0.357468
Pb      11.49780      7.64804      8.52418        -0.335995      0.111333     -0.431071
Pb      11.56240      7.78309     12.78429        -0.671197     -0.430711     -0.672875
Pb      11.40314     11.49284      4.28627        -0.796581     -0.318622     -0.007149
Pb      11.34928     11.23379      0.10184        -0.370038      0.830651     -0.380054
Pb      11.46099     11.31735      8.37047        -0.009609      0.066186      0.082154
Pb      11.49573     11.39354     12.77119        -0.435186      0.549854     -0.503147
Ti       1.87229      1.79535      2.26327         0.355343     -0.281057     -0.223234
Ti       1.81977      1.89571     14.93728        -0.832437     -0.993107      0.006435
Ti       1.84011     13.14139      2.22166         0.365329      0.367391     -0.197049
Ti       1.78278     13.38955     14.95119        -0.841737     -0.319537      1.576548
Ti      13.23225      1.85651      2.27942        -0.257572     -0.030641      0.048268
Ti      13.17732      1.87573     15.01081         1.079235      0.114159     -0.126310
Ti      13.16688     13.23553      2.30909        -0.418630      0.539795     -0.092798
Ti      13.12151     13.28227     15.06676         1.342942      1.217494     -0.364418
Ti       1.93183      1.95118      6.35559         0.247505     -0.272981     -0.127754
Ti       1.90485     13.18423      6.32733         0.434973      1.413143      0.099103
Ti      13.32931      1.86883      6.34037        -0.791478     -0.207773      0.796964
Ti      13.31335     13.30083      6.48805        -0.654671     -0.148392      0.321642
Ti       1.88668      1.93163     10.76216         0.001620     -1.233488     -0.455377
Ti       1.88532     13.32407     10.57543        -0.425743      1.035006      0.322116
Ti      13.32897      1.88176     10.64663         0.042017      0.039052      0.577613
Ti      13.29001     13.25770     10.59733        -0.287628      0.705985      0.134338
Ti       1.88411      5.61269      2.20772        -0.390016     -0.706160      0.071239
Ti       1.93320      5.68732     14.97295        -1.998903      0.116730     -0.089117
Ti      13.30748      5.63996      2.33787         0.005225     -0.609655      0.541795
Ti      13.21148      5.76786     14.93717         1.478431     -0.670649      1.122072
Ti       1.89485      5.80473      6.41909        -0.454121     -1.797400     -0.180440
Ti      13.35972      5.70002      6.55355        -0.318005      0.006083     -0.727218
Ti       1.84549      5.76881     10.89246         0.410279      0.019537      0.004482
Ti      13.31990      5.73531     10.65942        -0.245568     -0.179760      1.838315
Ti       1.92329      9.35498      2.23351         0.091593      1.075938     -0.930805
Ti       1.85330      9.51737     14.96752        -0.354877      0.890604      0.150840
Ti      13.21368      9.45215      2.32576         0.484660     -0.362312      0.639784
Ti      13.30317      9.55871     14.97692        -0.193486     -0.351884     -0.126073
Ti       2.02686      9.45996      6.35930        -0.477392      0.555835      0.022920
Ti      13.36347      9.45263      6.42537         0.281430      0.651582      0.993247
Ti       1.88429      9.55473     10.74757         0.734060      0.050051      0.188257
Ti      13.39636      9.55887     10.71800        -0.277096     -0.211843     -1.555496
Ti       5.69215      1.79674      2.07061         0.067209      0.425578      1.007012
Ti       5.69957      1.93136     14.87106        -0.708558     -0.307186      0.669925
Ti       5.63619     13.16772      1.97795         0.510354     -0.051703      1.570129
Ti       5.66168     13.36832     15.05458        -0.665192     -1.610565     -1.153856
Ti       5.76473      1.90953      6.51264        -0.115951     -0.842749      0.883073
Ti       5.72783     13.24152      6.48377         0.565285      0.231744      1.423436
Ti       5.68298      1.86878     10.86113         0.426033      0.341996     -0.415304
Ti       5.63755     13.28201     10.61976         0.261794      0.121074     -0.407680
Ti       5.67732      5.56369      2.03962        -0.178295     -0.229086      1.566427
Ti       5.69424      5.65195     15.00698        -0.394264      0.180897     -0.830161
Ti       5.64819      5.58481      6.64126         0.644916      1.200318      0.135548
Ti       5.64594      5.68760     10.83280        -0.262659      0.589578      0.569152
Ti       5.73306      9.36585      1.94388        -0.854333      1.356649      0.950951
Ti       5.71596      9.42544     14.99900         0.173840      0.157896      0.238859
Ti       5.76832      9.51561      6.52667        -0.105994     -1.292002      1.258889
Ti       5.70881      9.43230     10.74774        -0.171985      0.559648      1.034353
Ti       9.43253      1.95404      2.29608         0.206382     -0.845669      0.214858
Ti       9.44758      1.91514     14.91972         1.065825     -0.692112     -0.341698
Ti       9.35425     13.27405      2.14054         1.136116     -0.155694      0.047487
Ti       9.46409     13.22209     15.04915        -0.284336      0.024673      1.115682
Ti       9.54278      1.87986      6.62610        -0.302313     -0.139197      0.750770
Ti       9.48988     13.31835      6.63149        -0.605856     -0.145764     -0.148120
Ti       9.51046      2.07434     10.73438        -0.091765     -3.537867     -0.137569
Ti       9.41663     13.33425     10.70242         1.642908      0.149605      0.693527
Ti       9.53050      5.64934      2.30338        -0.298555      0.542549      0.057130
Ti       9.56175      5.65104     14.89368        -1.105004      0.826609     -0.639503
Ti       9.45142      5.70043      6.67500        -0.191904      0.220105      0.609117
Ti       9.48576      5.80639     10.69730         0.272987     -0.925492      0.002530
Ti       9.48799      9.44487      2.13160        -0.513822      0.677231      1.721925
Ti       9.48641      9.39958     15.01431         0.366646      1.994605      0.971630
Ti       9.52962      9.42509      6.35184        -0.500235      0.184675      2.475205
Ti       9.49078      9.49587     10.76527         0.595629      0.412030      1.318808
O       1.89746      1.68974      0.45832         0.275525      0.674548      0.170431
O       1.90938      1.72918     13.17577        -0.209653      0.556609      0.208662
O       1.88205     13.31558      0.45526        -0.161069     -0.128795     -0.000301
O       1.80747     13.34942     13.23236        -0.258201     -0.047269     -1.347825
O      13.22340      1.92470      0.49824        -0.267022     -0.229065     -0.070786
O      13.17053      1.78635     13.22206         0.124645      0.227026      0.277354
O      13.21198     13.21152      0.56699        -0.255940      0.131225     -0.884417
O      13.20086     13.31205     13.26244        -0.000448     -0.144123      0.370533
O       1.86431      1.92843      4.59473         0.204024     -0.085632      0.044106
O       1.80317     13.09741      4.54340         0.595368      0.493005      0.511411
O      13.21303      1.76828      4.57206         0.561896      0.232671      0.129438
O      13.05086     13.21391      4.71190         0.835942      0.668055     -0.231990
O       2.00492      1.92579      8.95401        -0.249443      0.044650     -0.047410
O       2.01251     13.25578      8.79409        -0.371798      0.106971      0.495353
O      13.27870      1.96529      8.89777        -0.154414     -0.069153     -0.094369
O      13.25749     13.26047      8.82516         0.252195      0.001375      0.510173
O       1.89230      5.58175      0.39246        -0.434017      0.640928      0.211763
O       1.75376      5.76301     13.20345         0.556452     -0.295006      0.079352
O      13.24882      5.65507      0.55633         0.149686      0.322042     -0.204554
O      13.29506      5.75476     13.18814        -0.283315     -0.085622     -0.059829
O       1.84006      5.67045      4.65114         0.566579      0.229472      0.566868
O      13.39218      5.76980      4.75102        -0.229868     -0.285354      0.602856
O       1.90659      5.68078      9.07444        -0.040431      0.318168      0.598245
O      13.47770      5.59001      8.94889        -0.518433      0.277843     -1.234158
O       1.80910      9.45143      0.42210         0.329787     -0.501057      0.075890
O       1.64639      9.50394     13.16534         0.877836      0.337277      0.868306
O      13.15879      9.45490      0.50547         0.475185     -0.041819      0.608862
O      13.32462      9.57205     13.13297        -0.078514     -0.341920      0.662087
O       2.02347      9.41217      4.58035         0.036207      0.169197      0.480339
O      13.46697      9.44348      4.68953        -0.505818      0.012176     -0.759090
O       1.82654      9.61092      8.96309         0.411747     -0.156199      0.160037
O      13.44589      9.60575      8.84309        -0.358911     -0.216104      1.873922
O       5.69954      1.88065      0.32294         0.118893     -0.233726      0.046664
O       5.66525      1.99368     13.07692         0.242550     -0.225567      0.464554
O       5.53115     13.23048      0.25012         0.398392      0.180309     -0.683590
O       5.70966     13.38420     13.24693        -0.079828     -0.437956     -0.378967
O       5.79187      1.98472      4.77372         0.163353     -0.234736     -0.616455
O       5.72777     13.20799      4.69572         0.378586     -0.116007     -0.493942
O       5.82449      1.90662      9.07384        -0.590415     -0.444070     -0.368151
O       5.67514     13.27368      8.82072        -0.217149      0.050169      1.642730
O       5.76421      5.53768      0.33526        -0.166254      0.572939     -0.740238
O       5.55095      5.56188     13.22730         0.448329      0.374674      0.372984
O       5.73725      5.50579      4.88449        -0.392655      0.217907     -1.238870
O       5.58681      5.71749      9.03168         0.014114      0.110344     -0.495466
O       5.78915      9.47002      0.21021        -0.434061     -0.503705     -0.565186
O       5.73562      9.24517     13.24380         0.017040      0.590685     -0.445762
O       5.74424      9.57867      4.78169         0.076872     -0.377410     -0.881158
O       5.70056      9.38920      9.00325        -0.001977      0.248167     -0.671208
O       9.42573      2.00522      0.55140         0.110205      0.074748     -0.815118
O       9.50963      1.96416     13.15135         0.085837      0.053268      0.199741
O       9.41030     13.24557      0.37935         0.074453      0.186060      0.138379
O       9.40732     13.30408     13.28139        -0.125192     -0.039138     -0.384229
O       9.51755      1.89881      4.86386        -0.614736     -0.182394     -1.021699
O       9.39371     13.24924      4.82169        -0.154606      0.286484     -0.109713
O       9.56368      1.95988      8.95870         0.161981      0.023346     -0.099458
O       9.43411     13.18380      8.96012         0.259443      0.023082     -0.278893
O       9.55251      5.67166      0.53616        -0.262650     -0.047745     -0.261744
O       9.54118      5.72072     13.12935         0.150441     -0.218593      0.446281
O       9.47601      5.75088      4.89103        -0.139462     -0.197437     -1.092569
O       9.50153      5.69037      8.91083         0.055447      0.326359      0.309498
O       9.65082      9.42216      0.36031        -0.669055     -0.185089      0.033804
O       9.50870      9.31165     13.28213         0.214148      0.451467     -1.782509
O       9.35563      9.41004      4.66461        -0.197155     -0.163771     -1.391148
O       9.57016      9.52476      9.04624        -0.137787      0.005124     -0.512727
O       3.87561      1.74788      2.67634        -0.127448     -0.111335     -0.377224
O       3.80989      1.79696     15.30145        -0.534149      0.620410     -0.289966
O       3.83236     13.18394      2.56118        -0.061508      0.212279     -0.145850
O       3.69156     13.35146     15.19971         0.315178     -0.448314      0.357914
O       0.01086      1.80225      2.45324        -0.652495     -0.008735      0.701318
O      15.09447      1.87317     15.29939         0.543018     -0.193192      0.180675
O      15.12395     13.24409      2.64266        -0.134640     -0.972394     -0.571365
O      15.03386     13.52002     15.43776         0.489197     -0.964489     -0.398098
O       3.81368      1.97572      6.78643        -0.387946     -0.608462     -0.109886
O       3.79996     13.23215      6.81250         0.091811      0.270965     -0.680590
O       0.01312      1.95352      6.77016         0.371927     -0.395375     -0.184207
O       0.02300     13.34277      6.71543         0.266048     -0.330619     -0.106475
O       3.86052      1.84153     11.11468        -1.067554      0.654499      0.154115
O       3.69994     13.32268     11.15223         1.168030     -0.319553     -0.737165
O       0.01409      1.82531     11.00774        -0.947834      0.263912      0.221451
O       0.02552     13.38633     11.05278        -0.926684     -0.270413     -0.289959
O       3.71220      5.57576      2.51596         2.458399      0.672948      0.252504
O       3.72455      5.51579     15.43096         0.061877      0.457523     -0.467448
O       0.00110      5.56003      2.71731        -0.135161      0.537702     -0.784862
O      15.12566      5.78138     15.44647         0.153257      0.045973     -0.265834
O       3.73826      5.78189      6.96252        -0.247455     -0.538590     -0.464615
O       0.05027      5.70366      7.03127         0.210817      0.521365     -0.930866
O       3.76949      5.66721     11.25644        -0.625762      0.068361     -0.345953
O      15.17046      5.68476     11.23714         0.444772     -0.141762     -0.434320
O       3.83939      9.48004      2.47570         0.535326     -0.590109      0.255573
O       3.77278      9.66166     15.23876        -1.336835     -0.964957     -0.480991
O       0.02543      9.38950      2.56220        -1.225229      0.161718      0.025761
O      15.13956      9.49896     15.40440         0.134194     -0.477478     -0.021327
O       3.84964      9.53521      6.94738        -0.421654     -0.346229     -0.466791
O       0.07271      9.52513      6.86528         0.628900      0.371060     -0.548144
O       3.85370      9.55798     11.16469        -1.425787      0.341839      0.029561
O       0.00672      9.36629     11.11430        -0.398732      0.792660     -0.203096
O       7.55834      1.96680      2.57450        -0.363773      0.010601      0.420804
O       7.59473      1.91774     15.23202        -0.605918      0.070998      0.277092
O       7.52717     13.13361      2.48877        -0.103358      0.099330      0.228301
O       7.49699     13.33992     15.44502         1.194454     -0.479330     -0.299724
O       7.61800      1.89889      7.05020        -0.463426      0.346385     -0.470775
O       7.65640     13.20301      6.99937        -1.033727     -0.133871     -0.414911
O       7.63741      1.82631     11.15885        -0.230710      0.300263     -0.059627
O       7.54088     13.34633     11.07389        -0.225760     -0.140722     -0.010406
O       7.62498      5.57413      2.58186        -1.117093      0.104137     -0.060413
O       7.57248      5.71837     15.22917         0.631618      0.339202      0.442469
O       7.55936      5.62967      6.98291         0.054011     -0.170741      0.015443
O       7.57931      5.75450     11.11255         0.286553      0.200864     -0.183391
O       7.54708      9.36601      2.42507         0.603792      0.290824     -0.050694
O       7.62878      9.33099     15.34241        -1.036112     -0.206299      0.154290
O       7.58663      9.40037      6.99655         0.781491      0.480216     -0.316258
O       7.60241      9.40895     11.11247         0.542632      0.066388     -0.051527
O      11.30544      1.81402      2.63744         0.417567      0.192974      0.001176
O      11.32956      2.04124     15.40414        -0.518342     -0.455402      0.130211
O      11.21714     13.32710      2.72842         0.813786     -0.413707     -0.453685
O      11.28364     13.07656     15.41546         0.343436      0.773264     -0.072696
O      11.46921      1.78020      6.73364        -0.383450      0.416036      0.674323
O      11.36988     13.33473      6.94791         0.620609      0.173360     -0.135303
O      11.39760      1.86921     11.14579         0.039040      0.633742     -0.541945
O      11.36486     13.16770     11.04547         0.393519      0.365515     -0.129591
O      11.42339      5.64881      2.77082        -0.763947     -0.151447     -0.263811
O      11.36051      5.66808     15.32122         0.307823      0.176031      0.061895
O      11.46881      5.80032      6.87867         0.197054     -0.300159      0.223577
O      11.41571      5.71168     10.86944         0.088205     -0.663685      0.464428
O      11.31221      9.36793      2.60516         1.063854     -0.135765      0.022276
O      11.45025      9.58972     15.35137        -0.379661     -0.303260     -0.214612
O      11.44648      9.39055      6.74929         0.249057     -0.013460      0.109177
O      11.48409      9.47934     11.01023        -0.439411      0.320231      0.561559
O       1.94321      3.72982      2.54996        -0.148044     -0.593288      0.000244
O       1.73358      3.78598     15.31727         0.463493     -0.213458     -0.224659
O       1.86604     15.07584      2.56721         0.323452     -0.056885      0.535553
O       1.90041      0.03527     15.40728        -0.565294     -0.137586     -0.258222
O      13.33153      3.70869      2.64020        -0.487813      0.577251      0.191110
O      13.23448      3.83094     15.39183         0.247898      0.620021     -0.414699
O      13.21101     15.11867      2.62033         0.178725      0.216225      0.002817
O      13.13006      0.01840     15.47985        -0.792261     -0.368253     -0.044074
O       1.76398      3.85254      6.79327         1.076493     -0.073626      0.007442
O       1.88238      0.01337      6.69046         0.572504     -0.144189     -0.079024
O      13.38793      3.75812      6.71277        -0.449084      0.642284      0.188758
O      13.38910      0.03205      6.90953        -0.332819     -0.550464     -0.431686
O       1.93625      3.73098     11.21695        -0.401530      1.431128     -0.157157
O       1.88801      0.02463     11.06119         0.355389     -0.964248     -0.168838
O      13.30587      3.72070     11.25861         0.146594      0.971889     -1.023682
O      13.20878     15.18349     10.99173         0.024121     -0.462124     -0.000600
O       1.94834      7.48445      2.62273        -0.069045      0.013660     -0.206655
O       1.94238      7.63966     15.23368         0.053863     -0.595135      0.255813
O      13.23854      7.50173      2.74100         0.449605      0.749799     -0.749817
O      13.21523      7.65483     15.49531         0.066633     -0.554928     -0.693472
O       1.89591      7.64681      6.75302         0.071439     -0.284275      0.420607
O      13.52401      7.61677      6.91580        -0.823553     -0.385941     -0.131353
O       1.88687      7.69930     11.12305         0.320998     -1.444223     -0.042151
O      13.32008      7.56388     11.06281        -0.112742      0.878065     -0.194282
O       1.90152     11.27059      2.52776        -0.282866      0.649412      0.169363
O       1.64898     11.47030     15.43210         0.444246     -0.395556     -0.753599
O      13.12820     11.35976      2.63692         0.427647     -0.948692      0.036267
O      13.24718     11.39518     15.41736         0.596293      0.121610     -0.086618
O       1.93378     11.36920      6.72330        -0.089529     -0.145830      0.066520
O      13.32319     11.45230      6.74470        -0.133944     -0.951792      0.124532
O       1.74362     11.43191     11.11139         0.582513      0.373521     -0.288016
O      13.34758     11.46349     11.13924         0.316528     -1.051101     -0.246441
O       5.59339      3.73017      2.49018         0.363209      0.275210     -0.038160
O       5.61090      3.75171     15.42257         0.506246     -0.125223     -0.591264
O       5.85249     15.05995      2.46011        -0.511818      0.544909      0.184271
O       5.73884     15.19420     15.22775        -0.175309      1.245916      0.284911
O       5.60760      3.69888      7.03665         0.305415      1.256156     -0.080379
O       5.78707     15.10729      6.81506        -0.293476      1.177218     -0.079715
O       5.78687      3.85217     11.06794        -0.201409     -1.127137      0.138687
O       5.61743     15.16809     11.06461         0.493864     -0.691109      0.035088
O       5.70955      7.55608      2.40634        -0.404238     -1.976095      0.438456
O       5.37350      7.52149     15.33584         0.665152     -0.181105     -0.137642
O       5.74106      7.51068      6.86249        -0.451957      0.601504      0.178003
O       5.58458      7.60580     11.13112         0.278380     -0.566823      0.068061
O       5.73503     11.28446      2.33486        -0.169461      0.465253      0.408856
O       5.64518     11.34171     15.24373         0.688285      0.499957      0.100825
O       5.74949     11.41015      6.93816        -0.034203     -0.932546     -0.223409
O       5.76200     11.42457     11.13935        -0.296770      0.260824     -0.297889
O       9.55592      3.81790      2.92151        -0.437941     -0.131475     -1.058709
O       9.43853      3.79859     15.36968        -0.059683      0.805104     -0.247306
O       9.37398     15.15675      2.54197        -0.379306      0.469055      0.350620
O       9.52859      0.04846     15.37914        -0.167016     -0.536445      0.002631
O       9.57230      3.79831      6.94309         0.267349     -0.044685     -0.340654
O       9.40277      0.00635      7.02853         0.427390     -0.353727     -0.251228
O       9.43853      3.82196     11.02049         0.256434      1.849441      0.458186
O       9.53186      0.01317     11.14365        -0.253291     -0.887781     -0.587780
O       9.38701      7.58479      2.63702         0.413249     -1.386186     -0.096645
O       9.63406      7.63748     15.40003        -0.256978     -2.938096      0.397432
O       9.51403      7.58654      6.97502        -0.086894      0.180078      0.026234
O       9.59583      7.56754     11.19248        -0.191057      1.378257     -0.406366
O       9.53269     11.30590      2.60918        -0.520286      0.340965     -0.292536
O       9.37916     11.31688     15.42039        -0.284067      0.641253     -0.458305
O       9.58345     11.29773      6.79410        -0.300485      0.179620      0.279936
O       9.42728     11.42210     11.35644         0.498084     -0.744451     -1.343677
