  # total energy = -7881.95453598 
CRSYTAL
PRIMVEC
    15.3600000000000000    0.0000000000000000    0.0000000000000000
     0.0000000000000000   15.3600000000000000    0.0000000000000000
     0.0000000000000000    0.0000000000000000    17.440000000000000
PRESSURE
0.447532 0.487427 -1.91425 -0.073422 -0.330941 -0.052055
PRIMCOORD
320 1
Pb       3.93802      3.79564      4.38607        -0.144763      0.160401     -0.293058
Pb       3.88333      3.81319      0.03054         0.005294     -0.074599     -0.526989
Pb       3.77242      0.03291      4.34508         0.303037     -0.200817      0.327155
Pb       3.79579     15.28565     17.35183        -0.097083      0.259991     -0.596766
Pb       0.08313      3.80752      4.35814        -0.163363     -0.000416     -0.299629
Pb       0.05140      3.85503      0.01103        -0.246263      0.335011     -0.598108
Pb       0.09830      0.03742      4.37293        -0.540213     -0.225252      0.097253
Pb      15.24033      0.08168     17.36482         0.438260     -0.634187     -0.088341
Pb       3.74903      3.81699      8.68716         0.093300     -0.006625     -0.192291
Pb       3.75754     15.30261      8.66162         0.213872      0.117847     -0.258399
Pb      15.10532      3.95907      8.65010         1.023314     -0.671537      0.276367
Pb      15.23996     15.28190      8.74228        -0.031011      0.488432     -0.608977
Pb       3.95861      3.64226     13.05319        -0.224340      0.507741     -0.415654
Pb       3.79328      0.00929     12.94065         0.156590     -0.234391      0.283487
Pb       0.03180      3.77378     13.01703        -0.332486      0.209599      0.271245
Pb      15.27604     15.20450     13.05183         0.069090      0.382426     -0.452193
Pb       3.83864      7.67825      4.31833         0.095741     -0.100456     -0.296229
Pb       3.80857      7.64736      0.03370        -0.365002     -0.388985     -0.412429
Pb       0.12837      7.75516      4.28637        -0.462755     -0.510027      0.349191
Pb       0.00436      7.70332      0.05512         0.295313     -0.554342     -0.456141
Pb       3.75703      7.69383      8.63094        -0.009739     -0.257669      0.080301
Pb      15.26216      7.63746      8.64423         0.090652      0.248360      0.147937
Pb       3.89781      7.57058     13.07123        -0.177930      0.099730     -0.560524
Pb      15.33183      7.66434     13.06726         0.341305     -0.271300      0.422315
Pb       3.81256     11.53367      4.30799         0.036711      0.039711     -0.070867
Pb       3.90154     11.58201     17.42336        -0.416830      0.058301     -0.543055
Pb       0.10361     11.55791      4.30437        -0.364721     -0.102199     -0.329612
Pb      15.24502     11.48892     17.39489         0.238451      0.263637     -0.009299
Pb       3.86222     11.46580      8.66214        -0.086917      0.444300      0.170255
Pb       0.02398     11.48360      8.72649        -0.874007      0.028848     -0.198079
Pb       3.91421     11.37957     13.03691        -0.269073      0.515722     -0.228217
Pb       0.16257     11.47633     13.01716         0.127970      0.720033      0.037055
Pb       7.65566      3.80108      4.20620         0.410697     -0.319736      0.259265
Pb       7.71030      3.81420      0.05736        -0.445855     -0.408998     -0.248605
Pb       7.64825     15.31904      4.41719         0.368881      0.219546     -0.482954
Pb       7.50880      0.01517     17.35141         0.493336      0.117284     -0.038683
Pb       7.49479      3.91981      8.69327         0.512714     -0.684375     -0.219864
Pb       7.66913      0.01528      8.78180        -0.348530      0.402057     -0.748880
Pb       7.84105      3.88980     13.01299        -1.023365     -0.159775      0.087376
Pb       7.70175      0.08802     12.95903        -0.037501     -0.098014      0.439016
Pb       7.72564      7.58504      4.32814         0.034594      0.102286     -0.208592
Pb       7.57768      7.74007      0.02838         0.159970     -0.262898     -0.505900
Pb       7.73370      7.59960      8.72746         0.419046      0.691619     -0.027937
Pb       7.72516      7.71948     13.10395        -0.677573     -0.270911     -0.495062
Pb       7.63991     11.42386      4.35530        -0.055804      0.429258     -0.366448
Pb       7.64359     11.62362     17.27963        -0.258136     -0.353559      0.007538
Pb       7.69080     11.58331      8.68659         0.103819     -0.265634     -0.167920
Pb       7.77376     11.60424     12.93410        -0.638113     -1.021165      1.111972
Pb      11.47547      3.74697      4.29395        -0.019845     -0.040591     -0.388698
Pb      11.66718      3.88356      0.16682        -0.262456     -0.120888     -1.089362
Pb      11.64610     15.30218      4.38000        -0.591046      0.055157     -0.315546
Pb      11.23688     15.26023      0.03753         0.538572      0.477673     -0.202628
Pb      11.48887      3.86449      8.62404        -0.220081     -0.642973      0.764247
Pb      11.44778      0.06175      8.74872         0.593158      0.057817     -0.166370
Pb      11.51190      3.73434     13.00329         0.178530      0.073205      0.377204
Pb      11.45914     15.28567     13.11379         0.098423      0.464497     -0.816447
Pb      11.57931      7.51332      4.36528        -0.380065      0.653691     -0.420650
Pb      11.43691      7.73042     17.43010        -0.029702     -0.312066     -0.656175
Pb      11.62266      7.71368      8.65551        -1.135006     -0.114720      0.326211
Pb      11.35522      7.55719     13.15907         0.103015      0.198160      0.120082
Pb      11.50175     11.45391      4.26249         0.265317      0.242942     -0.287548
Pb      11.40737     11.47050     17.35798        -0.070376     -0.202467     -0.400445
Pb      11.46053     11.41340      8.66445         0.287202      0.186220     -0.349862
Pb      11.58671     11.49415     13.03983        -0.737893      0.315364      0.163736
Ti       1.92069      1.87299      2.29602         0.224590      0.730455      0.044916
Ti       1.87151      1.94181     15.33671         0.716470     -0.395797     -0.088212
Ti       1.93602     13.49186      2.29804        -0.416787     -0.406076     -1.556383
Ti       1.81199     13.44214     15.34853         1.150600      0.298466     -0.298289
Ti      13.50108      1.84766      2.25757        -1.015571     -0.095438      0.436819
Ti      13.35677      1.80671     15.46157        -0.367241      1.518548     -1.072121
Ti      13.44912     13.39402      2.27847        -0.276777      0.342829      1.110095
Ti      13.40776     13.40488     15.32982        -0.131713     -0.235874      0.707780
Ti       1.86113      1.92628      6.68501        -0.193475     -0.484534     -0.239202
Ti       1.87811     13.36581      6.71495         0.438599      1.105591     -0.456223
Ti      13.38246      1.91915      6.62494         0.357364     -0.807476      0.783860
Ti      13.38977     13.41246      6.60616         0.519635      0.505522      1.403182
Ti       1.85968      1.95407     10.91878         0.495500      0.004840     -0.609856
Ti       1.95238     13.54068     10.94281        -0.083623     -1.044613      1.149608
Ti      13.41900      1.92851     11.05395        -0.558778     -0.807076     -0.272795
Ti      13.39089     13.34279     10.98551         0.194277      3.365548      0.495762
Ti       1.88999      5.67360      2.41560         0.523346      1.144702     -0.949785
Ti       1.91428      5.76028     15.39741        -0.394685      0.004457      0.573103
Ti      13.43035      5.70027      2.26070         0.384749      0.434175      1.233591
Ti      13.38886      5.73522     15.35644        -0.041627     -0.775078      0.233349
Ti       1.90762      5.75402      6.53100        -0.132230     -0.828025     -0.369777
Ti      13.37346      5.83019      6.60644        -0.580842     -0.763388     -0.662140
Ti       1.85956      5.74358     11.03201         1.067744     -0.197635     -0.035255
Ti      13.43679      5.85275     11.10940        -0.570200     -0.862574      1.818918
Ti       1.93480      9.61499      2.24362        -0.072244     -0.509092     -0.403183
Ti       1.82094      9.60989     15.37863         0.754641     -0.482594      0.930588
Ti      13.35486      9.50486      2.29186         0.020556      0.375827      1.202796
Ti      13.40455      9.56059     15.35987        -0.724059     -0.816275      0.966607
Ti       1.83014      9.57786      6.73775        -0.348503      0.205048     -1.098646
Ti      13.37082      9.63447      6.54874         0.415775      0.067103     -0.830602
Ti       1.73150      9.55740     10.98799         1.967497      0.123624      0.113721
Ti      13.30484      9.64812     11.11361         0.547235     -1.330026     -1.193801
Ti       5.72527      1.81383      2.34366         0.888237      0.810418     -0.535587
Ti       5.79235      1.93643     15.32635        -0.274895     -0.154282     -0.720623
Ti       5.73880     13.40874      2.26582        -0.186402      0.285116     -0.493918
Ti       5.67262     13.44208     15.29779         0.174766     -0.033492     -1.480485
Ti       5.72498      1.93434      6.69759         0.163563     -0.146004     -0.642841
Ti       5.86065     13.39601      6.63566        -0.622974      1.259610     -0.132795
Ti       5.81181      1.93978     11.05806        -0.197818     -0.118808     -0.307245
Ti       5.84389     13.41447     11.03814        -2.021183      0.083626     -0.182478
Ti       5.82695      5.76079      2.31336        -1.192094     -0.134781     -0.372438
Ti       5.73034      5.71804     15.37484         0.226603      0.051330     -0.471630
Ti       5.76788      5.91193      6.64074        -0.594029     -2.309777     -1.281249
Ti       5.71090      5.74794     10.96592         0.049037     -0.411706      1.378040
Ti       5.76470      9.56914      2.32424        -0.677491      0.161208     -0.195591
Ti       5.61515      9.58105     15.35625         0.505765     -0.226574     -1.232296
Ti       5.76845      9.63592      6.66654         0.007162      0.112870     -1.307818
Ti       5.60933      9.55250     10.97794         0.931892     -0.248610      0.866841
Ti       9.64530      1.79116      2.39230        -0.462668      0.350608     -0.369283
Ti       9.59764      1.95079     15.40729        -0.347427     -1.211942      0.870845
Ti       9.57106     13.36792      2.25368        -0.453867      0.964698      0.748516
Ti       9.53167     13.44680     15.37753        -0.330332      0.072383     -1.114343
Ti       9.57074      1.91617      6.68953        -0.486819     -0.044448      0.664120
Ti       9.77815     13.40332      6.64009        -1.854862      0.360248      0.256218
Ti       9.65265      1.90221     10.95852        -0.658291      0.541275      0.095847
Ti       9.58712     13.38679     10.95050         0.666285      0.793593      1.747273
Ti       9.66606      5.76698      2.27522        -1.072303     -0.311287     -0.498322
Ti       9.48592      5.64192     15.46609         0.674824      0.863002     -0.625721
Ti       9.59502      5.73421      6.67249         0.355651      0.144463     -0.852580
Ti       9.58880      5.81025     11.02878        -0.776355     -0.798266      0.310781
Ti       9.53455      9.56872      2.32826         0.602778     -0.473992      0.487087
Ti       9.43770      9.51357     15.34809         0.877760      0.454205     -0.649865
Ti       9.60572      9.58193      6.45819        -0.548719     -0.351743      1.176846
Ti       9.53893      9.56676     11.03171        -1.183290     -0.652992      0.655242
O       1.97254      1.92771      0.52324        -0.218392     -0.405999      0.527485
O       1.94797      1.93276     13.55150        -0.115613      0.423256      0.518569
O       1.99303     13.54541      0.45403        -0.346465     -0.166729      1.268213
O       1.91735     13.47862     13.57508        -0.501364     -0.256216      0.114862
O      13.49584      1.76719      0.48069        -0.141527      0.285357      0.217423
O      13.19966      1.91804     13.65858         0.662422     -0.258599      0.735751
O      13.48934     13.48138      0.54194        -0.055626     -0.318383     -0.154802
O      13.48923     13.25102     13.55870        -0.587816      0.372001      0.632880
O       1.93148      1.98655      4.83090        -0.426850     -0.411152      1.105069
O       1.97080     13.37005      4.90552        -0.519968     -0.080122      0.746872
O      13.47634      1.85249      4.87966        -0.099600      0.524514     -0.310807
O      13.24160     13.40887      4.87670         0.475396     -0.203709     -0.550026
O       1.92579      1.90874      9.11802        -0.019954     -0.005270      0.532441
O       1.90682     13.54077      9.17419        -0.284092     -0.400660      0.296454
O      13.28214      1.81533      9.27528         0.444595      0.298690      0.167094
O      13.32756     13.61185      9.25553         0.219661     -0.650496     -0.011006
O       1.88888      5.86570      0.60369        -0.105155     -0.441808      0.928642
O       1.79055      5.64194     13.63928         0.442507      0.271561      0.178951
O      13.42363      5.62355      0.52376        -0.142492      0.387207     -0.547453
O      13.48168      5.64403     13.56435        -0.291146      0.327416      0.458656
O       1.85286      5.66952      4.71372         0.148259      0.063048      1.548243
O      13.19859      5.87225      4.83163         0.577498     -0.846779      0.714665
O       1.86720      5.83753      9.24944        -0.047878      0.082722      0.136009
O      13.41094      5.72484      9.39106         0.091961      0.401441     -1.112188
O       1.84032      9.49087      0.43599         0.165274      0.384544      1.416947
O       1.88153      9.50914     13.62107        -0.194688      0.339222      0.269170
O      13.33798      9.48356      0.54001         0.329828      0.316449     -0.444364
O      13.45563      9.65703     13.60788        -0.389626      0.215515     -0.245767
O       1.77596      9.65142      4.94577         0.107810      0.202136      0.542029
O      13.49515      9.55386      4.74059        -0.200689      0.217336      1.393104
O       1.65506      9.51291      9.18436         0.543262     -0.203994      0.198074
O      13.33144      9.57874      9.31280        -0.256510     -0.024181      1.001520
O       5.83909      1.98452      0.55398        -0.375320     -0.502915      1.039996
O       5.81992      1.91455     13.46703        -0.439479     -0.182500      1.442235
O       5.62703     13.40422      0.42549         0.133257     -0.070430      0.931693
O       5.66541     13.39020     13.46873         0.121282      0.103691      1.152951
O       5.69581      1.85653      4.83658         0.225292      0.139936      1.412221
O       5.78907     13.48645      4.81654        -0.225486     -0.514453      1.235480
O       5.77692      1.97723      9.25908         0.024799      0.034865      0.120644
O       5.80485     13.33483      9.23206         0.239523      0.122703      0.776981
O       5.69248      5.74859      0.51471         0.408051      0.207146      0.959913
O       5.94174      5.75071     13.60159        -1.102584     -0.124982      0.606643
O       5.65289      5.86859      4.82343         0.641438     -0.172095      1.178047
O       5.60922      5.67186      9.20399         0.166669      0.287546     -0.993837
O       5.73201      9.48705      0.53936         0.015814      0.335597      0.148416
O       5.66333      9.65510     13.52278        -0.222581     -0.639705      1.424408
O       5.68800      9.73383      4.83125         0.175473     -0.040308      1.502422
O       5.62879      9.60617      9.21931         0.008345     -0.272476     -1.022098
O       9.57502      1.78031      0.61209        -0.081911      0.107945      0.175376
O       9.52935      1.85658     13.67165         0.349362     -0.054417     -0.718899
O       9.42129     13.49208      0.46482         0.606227     -0.425604      0.546977
O       9.48412     13.46283     13.55725         0.495681     -0.118401      0.959504
O       9.44198      1.94548      4.94596         0.351524      0.061740     -0.295120
O       9.77005     13.25794      4.90619        -0.323926      0.415444     -0.064098
O       9.60255      1.94583      9.20377        -0.010821     -0.308275     -0.161476
O       9.63016     13.27165      9.22929        -0.232165      0.329274     -0.766745
O       9.54247      5.72617      0.48840         0.179179     -0.050202      0.189548
O       9.39141      5.66353     13.62740         0.781500      0.637851      1.010327
O       9.69541      5.86072      4.84019        -0.207435     -0.732923      1.449074
O       9.52233      5.97956      9.28634         0.081669     -0.470617     -0.538628
O       9.38940      9.50018      0.60657         0.253942      0.308220     -1.173009
O       9.46177      9.58612     13.53094         0.383405     -0.289832      0.741076
O       9.65839      9.61278      4.70112        -0.508638      0.048371      0.353880
O       9.40810      9.47362      9.29448         0.584652      0.172931     -0.558661
O       3.80318      1.98677      2.76430         0.335526     -0.135067     -0.350625
O       3.87301      1.88463     15.79819        -0.511591      0.611967     -0.257688
O       3.75465     13.42484      2.67830         0.763542      0.047364      0.158348
O       3.78278     13.35097     15.67740        -0.231737      0.114436      0.512782
O      15.35914      1.82129      2.67803        -0.036295      0.099092      0.083645
O      15.32538      1.91535     15.71635         0.278387     -0.041414      0.156106
O      15.30456     13.55266      2.79637         0.335100     -0.389551     -0.307018
O      15.30253     13.40609     15.75258        -0.615193      0.134859      0.018564
O       3.82414      1.95154      7.00158        -0.385009     -0.097398      0.276431
O       3.76104     13.30167      7.11370         0.629699     -0.062055     -0.227950
O      15.31712      1.81994      7.10371        -0.276244      0.288746     -0.286917
O      15.26065     13.43802      7.14619         0.417466     -0.115257     -0.462954
O       3.84704      1.78514     11.33456        -0.150501      0.201137      0.247449
O       3.79898     13.55983     11.35975         0.116799      0.029490     -0.398379
O      15.32700      2.02737     11.39115         0.128883     -0.118285     -0.197583
O      15.29066     13.37207     11.54611         0.623675     -0.106000     -0.924281
O       3.82951      5.69323      2.74572         0.517276      0.013136     -0.083095
O       3.82893      5.74037     15.86552        -0.307274     -0.346583     -0.440600
O      15.30594      5.72638      2.77413        -0.126339      0.251103     -0.302692
O      15.26388      5.78661     15.87454         0.466157     -0.105339     -0.169616
O       3.75733      5.66949      6.95645        -0.419951      0.616814      0.050359
O      15.17928      5.81011      7.07367         1.248558     -0.197813     -0.284390
O       3.82231      5.64655     11.43309        -0.424072      0.646053      0.247510
O      15.34764      5.69698     11.53849        -0.024873     -0.506509     -0.522010
O       3.80681      9.65512      2.71645         0.029433     -0.292729     -0.054240
O       3.75846      9.62409     15.75947         0.002306      0.214924      0.007076
O       0.13492      9.37451      2.72757        -1.301407      1.288577     -0.823445
O      15.25635      9.41357     15.81604        -0.103285      0.735469     -0.251123
O       3.71608      9.63062      6.99678         0.601444     -0.082500      0.404117
O      15.13017      9.55083      7.16592         1.246756     -0.044170     -0.306628
O       3.75779      9.42945     11.40977        -0.295158      0.277427     -0.171676
O      15.32171      9.68321     11.46057        -0.594527      0.286306     -0.059077
O       7.67235      1.80532      2.88649        -1.031574      0.166946     -0.557058
O       7.63226      1.96542     15.86029         0.168079     -0.788099     -0.100841
O       7.59315     13.50848      2.65299         0.610691     -0.401140      0.096231
O       7.61766     13.40008     15.70864        -0.416125      0.233946      0.143963
O       7.63517      1.85251      7.21364        -0.318347      0.024766     -0.446594
O       7.73206     13.38248      6.96407        -0.498894      0.554263      0.214726
O       7.70045      1.89185     11.44736         0.447882      0.130466     -0.525299
O       7.65962     13.36729     11.48788         1.143428      0.055307     -1.084919
O       7.75067      5.84250      2.73038        -0.708553     -0.432990     -0.074478
O       7.58530      5.79720     15.79184         1.089471     -0.245711      0.603855
O       7.67319      5.80798      7.07086        -0.540908      0.014565     -0.295989
O       7.60402      5.72161     11.41070         0.745732      0.110058     -0.502879
O       7.60550      9.52293      2.72932         0.645020      0.762096      0.338875
O       7.62754      9.57441     15.73992        -1.174127     -0.238704      0.345249
O       7.63624      9.43534      6.86277        -0.088363      0.545374      0.117956
O       7.60723      9.48853     11.40008         0.133783      0.335679     -0.122587
O      11.54919      1.78963      2.73184        -0.038862      0.909582      0.062489
O      11.46919      1.89568     15.79290        -0.261919     -0.623665      0.420062
O      11.41611     13.43760      2.75302         0.715665     -0.245398     -0.842864
O      11.44660     13.51140     15.74982         0.262679     -0.657815     -0.134896
O      11.44396      1.98529      7.00778         0.996067      0.301007      0.012202
O      11.54979     13.42851      7.16741        -0.167424     -0.744770     -0.011708
O      11.48325      1.87860     11.46210         0.048004     -0.183218      0.174717
O      11.46099     13.45262     11.50895        -0.021150     -0.375781     -0.292262
O      11.46083      5.64765      2.66268         0.866450      0.134984      0.086738
O      11.49146      5.69564     15.80008        -0.771086     -0.213055     -0.002635
O      11.51108      5.66149      7.20948        -0.547654      0.634624     -0.658657
O      11.47904      5.98212     11.47718         0.713821     -0.855106     -0.219960
O      11.50133      9.58603      2.61857        -0.019496      0.372056     -0.128699
O      11.31554      9.57848     15.89546         1.290694      0.587864     -0.221997
O      11.46667      9.59883      6.95435        -0.282383      0.345394      0.203736
O      11.44559      9.39954     11.49526         0.815909      0.739467     -0.077901
O       1.82286      3.79115      2.70794        -0.024752     -0.398334     -0.115611
O       1.86991      3.89035     15.93911         0.138363     -0.660597     -0.548301
O       1.88711     15.33070      2.84408         0.405794      0.795811     -0.491100
O       1.93675      0.01695     15.58603        -0.282584      0.075028      0.723215
O      13.39504      3.83855      2.64767        -0.035023     -1.202701      0.140541
O      13.29783      3.75166     15.92887         0.852889      0.283015     -0.284608
O      13.29773     15.34686      2.73236         0.931162     -0.388036     -0.188780
O      13.43734     15.25459     15.82902        -0.109563      0.421976     -0.537228
O       1.70926      3.82408      6.88778         0.259627      0.855094      0.421535
O       1.90579     15.30645      7.03328         0.081646      0.188548     -0.203556
O      13.39348      3.83537      7.20409        -0.083121      0.099345     -1.120214
O      13.32007      0.00180      6.96619         0.034014     -0.092656      0.213256
O       2.06205      3.79985     11.23792        -0.748329      0.162556      0.508411
O       1.75577      0.04188     11.33059         0.068878     -0.507183      0.189461
O      13.25687      3.79286     11.46406         0.638831      1.042223     -0.258634
O      13.44025     15.35010     11.47360        -0.035679     -0.149921      0.329313
O       1.97943      7.62702      2.82480         0.200230      0.670506     -0.395098
O       1.95354      7.66032     15.88046        -0.390769      0.112896     -0.489814
O      13.25902      7.62480      2.67601         0.735302     -0.057078     -0.292624
O      13.23502      7.64284     15.69760         0.235370      0.576101     -0.064258
O       1.76721      7.65074      6.87523         0.248321     -0.268552      0.579952
O      13.21778      7.66573      7.01586         0.559874      0.532076     -0.162231
O       1.80215      7.65569     11.47478         0.029880     -0.013715     -0.242702
O      13.66655      7.74632     11.47117        -1.006097     -0.424445     -0.331807
O       1.89031     11.61257      2.69053        -0.545078     -1.510313     -0.194628
O       1.67071     11.52948     15.83703         0.626245     -0.905232     -0.475489
O      13.50253     11.48382      2.72946         0.014159      0.011024     -0.531142
O      13.30459     11.48544     15.92895         0.379437     -0.098950     -0.591404
O       1.75449     11.46862      7.18168        -0.034398     -0.014742     -0.261144
O      13.37732     11.51067      7.19875        -0.149152     -0.302469     -0.772371
O       2.01894     11.50268     11.44148        -0.676888     -0.197549     -0.598093
O      13.32039     11.57365     11.31757        -0.283128     -2.426425      0.401040
O       5.89193      3.87680      2.64064        -0.433678     -0.456467      0.314620
O       5.81667      3.76399     15.81007        -0.643230      0.964488     -0.091764
O       5.55627     15.32122      2.64128         0.422309      0.305488     -0.018004
O       5.69835     15.34354     15.70517         0.199734     -0.084650      0.078494
O       5.68741      3.86015      7.03190         0.546434     -0.186415     -0.051540
O       5.69358     15.29451      7.17191         0.244170     -0.018632     -0.483077
O       5.77056      3.79419     11.52304        -0.233093      0.161464     -0.676403
O       5.94651     15.30714     11.37459        -0.716349      0.059227     -0.319602
O       5.81375      7.69413      2.74660        -0.731846     -0.207289     -0.070561
O       5.66126      7.63452     15.64933         0.005368      1.074364      0.432984
O       5.63552      7.68490      6.94692        -0.288164      1.037432      0.589126
O       5.65737      7.58752     11.32500         0.111512      0.662585      0.183673
O       5.69345     11.56875      2.65341         0.238617     -0.836600      0.145575
O       5.67097     11.53351     15.69077         0.292380     -0.722213      0.526678
O       5.82131     11.53142      7.19879        -0.383686     -0.829347     -0.811149
O       5.64114     11.44039     11.41067         0.180810      0.605601     -0.322991
O       9.59202      3.73767      2.72984        -0.249024      0.794305      0.095335
O       9.49481      3.75885     15.81838         0.104728      1.362803      0.164443
O       9.52929     15.34476      2.81877         0.286045     -1.543037     -0.018471
O       9.47928     15.34666     15.91106         0.100748     -0.082247     -0.561233
O       9.53908      3.83843      7.21499        -0.241372      0.739207     -0.737640
O       9.75929      0.01130      7.07719        -1.057153     -0.725679     -0.227721
O       9.57601      3.79176     11.44861         0.514966      0.999493     -0.457598
O       9.62823      0.03142     11.29894        -0.504965     -1.571856      0.123063
O       9.60451      7.67270      2.63664         0.108131     -0.400827      0.245112
O       9.61949      7.64563     15.79433        -0.660958     -0.330570     -0.266432
O       9.61144      7.65375      6.99119         0.150419      0.277762      0.060431
O       9.55135      7.61790     11.44851        -0.471742      0.920608      0.690612
O       9.63420     11.49426      2.68069        -0.829167      0.339805     -0.221946
O       9.45125     11.51187     15.73945         0.644988      0.136347      0.251224
O       9.46116     11.48676      7.00031         0.772904     -0.930497      0.093996
O       9.59579     11.47399     11.38124         0.243258      0.169285     -0.122347
