  # total energy = -7882.39066508 
CRSYTAL
PRIMVEC
    15.6000000000000000    0.0000000000000000    0.0000000000000000
     0.0000000000000000   15.6000000000000000    0.0000000000000000
     0.0000000000000000    0.0000000000000000    17.640000000000000
PRESSURE
-8.00391 -8.00364 -14.0789 0.048411 0.050345 -0.00458
PRIMCOORD
320 1
Pb       3.88012      3.88012      4.37960        -0.033334     -0.033185     -0.478182
Pb       3.88087      3.88087     17.61153        -0.013042     -0.012799     -0.478658
Pb       3.88012     15.58011      4.37960        -0.033340     -0.033126     -0.478213
Pb       3.88087     15.58087     17.61152        -0.013059     -0.012839     -0.478639
Pb      15.58012      3.88011      4.37960        -0.033305     -0.033139     -0.478215
Pb      15.58087      3.88087     17.61152        -0.013098     -0.012817     -0.478634
Pb      15.58012     15.58012      4.37960        -0.033268     -0.033146     -0.478230
Pb      15.58088     15.58087     17.61152        -0.013114     -0.012855     -0.478632
Pb       3.88087      3.88087      8.79153        -0.013054     -0.012801     -0.478651
Pb       3.88087     15.58087      8.79153        -0.013069     -0.012832     -0.478631
Pb      15.58087      3.88087      8.79153        -0.013087     -0.012818     -0.478633
Pb      15.58088     15.58087      8.79152        -0.013105     -0.012849     -0.478638
Pb       3.88012      3.88012     13.19960        -0.033327     -0.033194     -0.478185
Pb       3.88012     15.58011     13.19960        -0.033342     -0.033121     -0.478220
Pb      15.58012      3.88012     13.19960        -0.033308     -0.033144     -0.478223
Pb      15.58012     15.58012     13.19960        -0.033261     -0.033148     -0.478238
Pb       3.88012      7.78011      4.37960        -0.033294     -0.033148     -0.478257
Pb       3.88087      7.78087     17.61152        -0.013077     -0.012811     -0.478609
Pb      15.58012      7.78012      4.37960        -0.033317     -0.033192     -0.478180
Pb      15.58087      7.78087     17.61152        -0.013092     -0.012807     -0.478675
Pb       3.88087      7.78087      8.79152        -0.013080     -0.012813     -0.478595
Pb      15.58087      7.78087      8.79153        -0.013086     -0.012800     -0.478671
Pb       3.88012      7.78011     13.19960        -0.033289     -0.033131     -0.478259
Pb      15.58012      7.78012     13.19960        -0.033314     -0.033177     -0.478184
Pb       3.88012     11.68012      4.37960        -0.033310     -0.033168     -0.478202
Pb       3.88087     11.68087     17.61152        -0.013073     -0.012833     -0.478677
Pb      15.58012     11.68011      4.37960        -0.033268     -0.033115     -0.478254
Pb      15.58087     11.68087     17.61152        -0.013126     -0.012861     -0.478626
Pb       3.88087     11.68087      8.79152        -0.013075     -0.012830     -0.478668
Pb      15.58087     11.68087      8.79152        -0.013126     -0.012851     -0.478618
Pb       3.88012     11.68012     13.19960        -0.033319     -0.033176     -0.478204
Pb      15.58012     11.68011     13.19960        -0.033258     -0.033118     -0.478263
Pb       7.78012      3.88012      4.37960        -0.033329     -0.033168     -0.478194
Pb       7.78087      3.88087     17.61153        -0.013053     -0.012823     -0.478665
Pb       7.78012     15.58011      4.37960        -0.033277     -0.033117     -0.478272
Pb       7.78088     15.58087     17.61152        -0.013103     -0.012866     -0.478615
Pb       7.78087      3.88087      8.79153        -0.013054     -0.012817     -0.478654
Pb       7.78087     15.58087      8.79152        -0.013096     -0.012864     -0.478607
Pb       7.78012      3.88012     13.19960        -0.033332     -0.033175     -0.478190
Pb       7.78012     15.58011     13.19960        -0.033280     -0.033107     -0.478270
Pb       7.78012      7.78012      4.37960        -0.033347     -0.033150     -0.478212
Pb       7.78087      7.78087     17.61152        -0.013083     -0.012828     -0.478660
Pb       7.78087      7.78087      8.79152        -0.013074     -0.012818     -0.478651
Pb       7.78012      7.78011     13.19960        -0.033346     -0.033135     -0.478218
Pb       7.78012     11.68012      4.37960        -0.033305     -0.033140     -0.478232
Pb       7.78087     11.68087     17.61152        -0.013109     -0.012855     -0.478664
Pb       7.78087     11.68087      8.79152        -0.013102     -0.012859     -0.478656
Pb       7.78012     11.68012     13.19960        -0.033297     -0.033154     -0.478234
Pb      11.68012      3.88011      4.37960        -0.033296     -0.033122     -0.478249
Pb      11.68087      3.88087     17.61152        -0.013105     -0.012842     -0.478626
Pb      11.68012     15.58012      4.37960        -0.033317     -0.033153     -0.478201
Pb      11.68087     15.58087     17.61152        -0.013113     -0.012854     -0.478692
Pb      11.68087      3.88087      8.79152        -0.013097     -0.012840     -0.478621
Pb      11.68087     15.58087      8.79152        -0.013100     -0.012859     -0.478689
Pb      11.68012      3.88011     13.19960        -0.033291     -0.033117     -0.478253
Pb      11.68012     15.58012     13.19960        -0.033319     -0.033153     -0.478190
Pb      11.68012      7.78012      4.37960        -0.033271     -0.033181     -0.478225
Pb      11.68088      7.78087     17.61152        -0.013101     -0.012847     -0.478644
Pb      11.68088      7.78087      8.79152        -0.013106     -0.012834     -0.478641
Pb      11.68012      7.78012     13.19960        -0.033274     -0.033170     -0.478232
Pb      11.68012     11.68011      4.37961        -0.033285     -0.033084     -0.478271
Pb      11.68087     11.68088     17.61152        -0.013130     -0.012876     -0.478638
Pb      11.68087     11.68088      8.79152        -0.013122     -0.012877     -0.478629
Pb      11.68012     11.68011     13.19961        -0.033291     -0.033095     -0.478270
Ti       1.92558      1.92566      2.35375        -0.016176     -0.015200     -1.300961
Ti       1.92572      1.92588     15.58381        -0.014390     -0.014010     -1.268559
Ti       1.92558     13.62567      2.35375        -0.016169     -0.015235     -1.301109
Ti       1.92572     13.62588     15.58381        -0.014396     -0.014035     -1.268473
Ti      13.62558      1.92567      2.35375        -0.016199     -0.015256     -1.301277
Ti      13.62572      1.92588     15.58380        -0.014375     -0.013978     -1.268213
Ti      13.62558     13.62566      2.35375        -0.016194     -0.015210     -1.301185
Ti      13.62572     13.62588     15.58380        -0.014396     -0.014012     -1.268316
Ti       1.92572      1.92588      6.76381        -0.014406     -0.014030     -1.268519
Ti       1.92572     13.62588      6.76381        -0.014401     -0.014013     -1.268442
Ti      13.62572      1.92588      6.76380        -0.014363     -0.013987     -1.268208
Ti      13.62572     13.62588      6.76380        -0.014400     -0.014009     -1.268307
Ti       1.92558      1.92566     11.17375        -0.016173     -0.015210     -1.300933
Ti       1.92558     13.62567     11.17375        -0.016174     -0.015246     -1.301108
Ti      13.62558      1.92567     11.17375        -0.016187     -0.015230     -1.301307
Ti      13.62558     13.62567     11.17376        -0.016188     -0.015228     -1.301215
Ti       1.92558      5.82567      2.35375        -0.016173     -0.015230     -1.301071
Ti       1.92572      5.82588     15.58381        -0.014390     -0.013997     -1.268359
Ti      13.62558      5.82567      2.35375        -0.016160     -0.015241     -1.301064
Ti      13.62572      5.82588     15.58381        -0.014390     -0.013988     -1.268471
Ti       1.92572      5.82588      6.76381        -0.014413     -0.014025     -1.268450
Ti      13.62572      5.82588      6.76381        -0.014376     -0.013996     -1.268426
Ti       1.92558      5.82567     11.17375        -0.016183     -0.015239     -1.301145
Ti      13.62558      5.82567     11.17375        -0.016171     -0.015254     -1.301032
Ti       1.92558      9.72567      2.35375        -0.016209     -0.015290     -1.301212
Ti       1.92572      9.72588     15.58381        -0.014351     -0.013973     -1.268378
Ti      13.62558      9.72567      2.35376        -0.016188     -0.015254     -1.301305
Ti      13.62572      9.72588     15.58380        -0.014365     -0.014000     -1.268246
Ti       1.92572      9.72588      6.76381        -0.014363     -0.013984     -1.268324
Ti      13.62572      9.72588      6.76380        -0.014392     -0.013996     -1.268273
Ti       1.92558      9.72567     11.17375        -0.016211     -0.015265     -1.301140
Ti      13.62558      9.72567     11.17376        -0.016195     -0.015261     -1.301323
Ti       5.82558      1.92567      2.35375        -0.016205     -0.015251     -1.301104
Ti       5.82572      1.92588     15.58381        -0.014338     -0.014000     -1.268435
Ti       5.82558     13.62566      2.35376        -0.016201     -0.015242     -1.301290
Ti       5.82572     13.62588     15.58380        -0.014341     -0.014008     -1.268218
Ti       5.82572      1.92588      6.76381        -0.014349     -0.014001     -1.268436
Ti       5.82572     13.62588      6.76380        -0.014365     -0.014009     -1.268194
Ti       5.82558      1.92567     11.17375        -0.016202     -0.015250     -1.301071
Ti       5.82558     13.62566     11.17376        -0.016214     -0.015229     -1.301271
Ti       5.82558      5.82567      2.35375        -0.016204     -0.015242     -1.301093
Ti       5.82572      5.82588     15.58381        -0.014359     -0.013959     -1.268424
Ti       5.82572      5.82588      6.76381        -0.014375     -0.013976     -1.268418
Ti       5.82558      5.82567     11.17375        -0.016206     -0.015241     -1.301072
Ti       5.82558      9.72566      2.35375        -0.016207     -0.015230     -1.301047
Ti       5.82572      9.72588     15.58381        -0.014373     -0.013993     -1.268412
Ti       5.82572      9.72588      6.76380        -0.014361     -0.014006     -1.268481
Ti       5.82558      9.72567     11.17375        -0.016200     -0.015243     -1.301021
Ti       9.72558      1.92566      2.35375        -0.016180     -0.015221     -1.301146
Ti       9.72572      1.92588     15.58381        -0.014393     -0.014039     -1.268392
Ti       9.72558     13.62567      2.35375        -0.016217     -0.015236     -1.301176
Ti       9.72572     13.62588     15.58381        -0.014360     -0.013985     -1.268314
Ti       9.72572      1.92588      6.76381        -0.014381     -0.014045     -1.268390
Ti       9.72572     13.62588      6.76381        -0.014333     -0.013989     -1.268359
Ti       9.72558      1.92566     11.17375        -0.016202     -0.015210     -1.301144
Ti       9.72558     13.62567     11.17375        -0.016222     -0.015263     -1.301190
Ti       9.72558      5.82567      2.35376        -0.016231     -0.015276     -1.301256
Ti       9.72572      5.82588     15.58380        -0.014345     -0.014010     -1.268317
Ti       9.72572      5.82588      6.76380        -0.014335     -0.013998     -1.268356
Ti       9.72558      5.82567     11.17376        -0.016219     -0.015260     -1.301228
Ti       9.72558      9.72567      2.35376        -0.016202     -0.015259     -1.301333
Ti       9.72572      9.72588     15.58380        -0.014359     -0.013966     -1.268268
Ti       9.72572      9.72588      6.76380        -0.014350     -0.013978     -1.268158
Ti       9.72558      9.72567     11.17375        -0.016206     -0.015263     -1.301261
O       1.93213      1.93211      0.46667        -0.016808     -0.016677      1.666266
O       1.93313      1.93310     13.69763        -0.019796     -0.019498      1.641843
O       1.93213     13.63211      0.46666        -0.018301     -0.016419      1.666797
O       1.93312     13.63310     13.69764        -0.019783     -0.019501      1.641767
O      13.63213      1.93211      0.46666        -0.018294     -0.016420      1.666866
O      13.63312      1.93310     13.69764        -0.019793     -0.019515      1.641712
O      13.63213     13.63211      0.46666        -0.016818     -0.016680      1.666354
O      13.63312     13.63310     13.69764        -0.019789     -0.019502      1.641738
O       1.93313      1.93310      4.87763        -0.019796     -0.019500      1.641814
O       1.93312     13.63310      4.87764        -0.019784     -0.019507      1.641752
O      13.63312      1.93310      4.87764        -0.019791     -0.019515      1.641698
O      13.63312     13.63310      4.87764        -0.019785     -0.019507      1.641724
O       1.93213      1.93211      9.28666        -0.016808     -0.016678      1.666292
O       1.93213     13.63211      9.28667        -0.016823     -0.016668      1.666315
O      13.63213      1.93211      9.28666        -0.018297     -0.016420      1.666857
O      13.63213     13.63211      9.28666        -0.016816     -0.016676      1.666356
O       1.93213      5.83211      0.46666        -0.016821     -0.016682      1.666320
O       1.93312      5.83310     13.69764        -0.019783     -0.019505      1.641781
O      13.63213      5.83211      0.46666        -0.016816     -0.016673      1.666312
O      13.63312      5.83310     13.69763        -0.019790     -0.019508      1.641789
O       1.93312      5.83310      4.87764        -0.019781     -0.019499      1.641788
O      13.63312      5.83310      4.87763        -0.019789     -0.019504      1.641773
O       1.93213      5.83211      9.28666        -0.016821     -0.016679      1.666327
O      13.63213      5.83211      9.28666        -0.016816     -0.016672      1.666292
O       1.93213      9.73211      0.46666        -0.016811     -0.016670      1.666347
O       1.93313      9.73310     13.69764        -0.019795     -0.019514      1.641777
O      13.63213      9.73211      0.46666        -0.018295     -0.016439      1.666888
O      13.63312      9.73310     13.69764        -0.019792     -0.019494      1.641696
O       1.93313      9.73310      4.87764        -0.019798     -0.019511      1.641760
O      13.63312      9.73310      4.87764        -0.019792     -0.019493      1.641687
O       1.93213      9.73211      9.28667        -0.016811     -0.016671      1.666328
O      13.63213      9.73211      9.28666        -0.016815     -0.016687      1.666389
O       5.83213      1.93211      0.46666        -0.016824     -0.016664      1.666316
O       5.83312      1.93310     13.69764        -0.019791     -0.019514      1.641790
O       5.83213     13.63211      0.46666        -0.018301     -0.016431      1.666874
O       5.83312     13.63310     13.69764        -0.019785     -0.019503      1.641730
O       5.83312      1.93310      4.87764        -0.019788     -0.019514      1.641784
O       5.83312     13.63310      4.87764        -0.019788     -0.019504      1.641700
O       5.83213      1.93211      9.28667        -0.016825     -0.016662      1.666300
O       5.83213     13.63211      9.28666        -0.018301     -0.016427      1.666859
O       5.83213      5.83211      0.46667        -0.016820     -0.016677      1.666307
O       5.83312      5.83310     13.69764        -0.019788     -0.019509      1.641792
O       5.83312      5.83310      4.87764        -0.019790     -0.019506      1.641771
O       5.83213      5.83211      9.28666        -0.016818     -0.016676      1.666306
O       5.83213      9.73211      0.46666        -0.016822     -0.016682      1.666319
O       5.83312      9.73310     13.69763        -0.019789     -0.019498      1.641799
O       5.83312      9.73310      4.87763        -0.019783     -0.019496      1.641778
O       5.83213      9.73211      9.28666        -0.016821     -0.016686      1.666307
O       9.73213      1.93211      0.46666        -0.018307     -0.016433      1.666842
O       9.73312      1.93310     13.69764        -0.019776     -0.019498      1.641756
O       9.73213     13.63211      0.46666        -0.016815     -0.016670      1.666363
O       9.73313     13.63310     13.69764        -0.019794     -0.019502      1.641737
O       9.73312      1.93310      4.87764        -0.019780     -0.019497      1.641744
O       9.73313     13.63310      4.87764        -0.019791     -0.019510      1.641730
O       9.73213      1.93211      9.28666        -0.018305     -0.016432      1.666830
O       9.73213     13.63211      9.28666        -0.016812     -0.016671      1.666360
O       9.73213      5.83211      0.46666        -0.016813     -0.016680      1.666357
O       9.73313      5.83310     13.69764        -0.019794     -0.019505      1.641733
O       9.73313      5.83310      4.87764        -0.019794     -0.019498      1.641729
O       9.73213      5.83211      9.28666        -0.016814     -0.016677      1.666340
O       9.73213      9.73211      0.46666        -0.018306     -0.016426      1.666878
O       9.73312      9.73310     13.69764        -0.019780     -0.019511      1.641700
O       9.73312      9.73310      4.87764        -0.019781     -0.019510      1.641671
O       9.73213      9.73211      9.28666        -0.018305     -0.016427      1.666885
O       3.87893      1.93190      2.70580        -0.009160     -0.017804      0.055869
O       3.87925      1.93245     15.93728        -0.010458     -0.015950      0.043467
O       3.87893     13.63190      2.70579        -0.009178     -0.017803      0.055908
O       3.87925     13.63245     15.93728        -0.010432     -0.015949      0.043434
O      15.57893      1.93190      2.70580        -0.009145     -0.017803      0.055889
O      15.57925      1.93245     15.93728        -0.010430     -0.015952      0.043436
O      15.57893     13.63190      2.70580        -0.009150     -0.017804      0.055900
O      15.57925     13.63245     15.93728        -0.010431     -0.015947      0.043451
O       3.87925      1.93245      7.11728        -0.010429     -0.015950      0.043467
O       3.87925     13.63245      7.11728        -0.010444     -0.015950      0.043432
O      15.57925      1.93245      7.11728        -0.010443     -0.015953      0.043439
O      15.57925     13.63245      7.11728        -0.010429     -0.015949      0.043449
O       3.87893      1.93190     11.52580        -0.009151     -0.017803      0.055863
O       3.87893     13.63190     11.52579        -0.009161     -0.017800      0.055902
O      15.57893      1.93190     11.52580        -0.009153     -0.017803      0.055889
O      15.57893     13.63190     11.52580        -0.009166     -0.017801      0.055896
O       3.87893      5.83190      2.70580        -0.009143     -0.017803      0.055887
O       3.87925      5.83245     15.93728        -0.010440     -0.015954      0.043445
O      15.57893      5.83190      2.70580        -0.009168     -0.017801      0.055880
O      15.57925      5.83245     15.93728        -0.010427     -0.015957      0.043456
O       3.87925      5.83245      7.11728        -0.010448     -0.015952      0.043444
O      15.57925      5.83245      7.11728        -0.010424     -0.015953      0.043452
O       3.87893      5.83190     11.52580        -0.009145     -0.017806      0.055888
O      15.57893      5.83190     11.52580        -0.009166     -0.017804      0.055878
O       3.87893      9.73190      2.70580        -0.009145     -0.017801      0.055884
O       3.87925      9.73245     15.93728        -0.010456     -0.015954      0.043452
O      15.57893      9.73190      2.70579        -0.009162     -0.017802      0.055913
O      15.57925      9.73245     15.93728        -0.010440     -0.015951      0.043435
O       3.87925      9.73245      7.11728        -0.010453     -0.015955      0.043453
O      15.57925      9.73245      7.11728        -0.010435     -0.015952      0.043433
O       3.87893      9.73190     11.52580        -0.009137     -0.017802      0.055879
O      15.57893      9.73190     11.52580        -0.009158     -0.017804      0.055909
O       7.77893      1.93190      2.70580        -0.009149     -0.017803      0.055888
O       7.77925      1.93245     15.93728        -0.010456     -0.015951      0.043456
O       7.77893     13.63190      2.70579        -0.009140     -0.017804      0.055913
O       7.77925     13.63245     15.93728        -0.010464     -0.015950      0.043424
O       7.77925      1.93245      7.11728        -0.010463     -0.015950      0.043453
O       7.77925     13.63245      7.11728        -0.010448     -0.015951      0.043426
O       7.77893      1.93190     11.52580        -0.009129     -0.017803      0.055881
O       7.77893     13.63190     11.52579        -0.009137     -0.017802      0.055910
O       7.77893      5.83190      2.70580        -0.009149     -0.017800      0.055900
O       7.77925      5.83245     15.93728        -0.010450     -0.015954      0.043440
O       7.77925      5.83245      7.11728        -0.010440     -0.015954      0.043441
O       7.77893      5.83190     11.52580        -0.009157     -0.017802      0.055897
O       7.77893      9.73190      2.70580        -0.009134     -0.017803      0.055898
O       7.77925      9.73245     15.93728        -0.010426     -0.015953      0.043440
O       7.77925      9.73245      7.11728        -0.010443     -0.015954      0.043435
O       7.77893      9.73190     11.52580        -0.009162     -0.017804      0.055890
O      11.67893      1.93190      2.70580        -0.009155     -0.017803      0.055910
O      11.67925      1.93245     15.93728        -0.010423     -0.015952      0.043425
O      11.67893     13.63190      2.70580        -0.009143     -0.017805      0.055901
O      11.67925     13.63245     15.93728        -0.010439     -0.015951      0.043441
O      11.67925      1.93245      7.11728        -0.010433     -0.015951      0.043426
O      11.67925     13.63245      7.11728        -0.010445     -0.015952      0.043442
O      11.67893      1.93190     11.52580        -0.009175     -0.017804      0.055905
O      11.67893     13.63190     11.52580        -0.009150     -0.017801      0.055901
O      11.67893      5.83190      2.70580        -0.009146     -0.017799      0.055891
O      11.67925      5.83245     15.93728        -0.010451     -0.015956      0.043447
O      11.67925      5.83245      7.11728        -0.010458     -0.015954      0.043445
O      11.67893      5.83190     11.52580        -0.009141     -0.017801      0.055889
O      11.67893      9.73190      2.70579        -0.009174     -0.017803      0.055928
O      11.67925      9.73245     15.93728        -0.010442     -0.015952      0.043418
O      11.67925      9.73245      7.11728        -0.010436     -0.015953      0.043418
O      11.67893      9.73190     11.52580        -0.009155     -0.017804      0.055922
O       1.93193      3.87884      2.70579        -0.017582     -0.010767      0.055868
O       1.93250      3.87924     15.93726        -0.017255     -0.011985      0.044412
O       1.93193     15.57883      2.70579        -0.017582     -0.010742      0.055867
O       1.93250     15.57924     15.93726        -0.017256     -0.011960      0.044425
O      13.63193      3.87883      2.70579        -0.017584     -0.010742      0.055880
O      13.63250      3.87924     15.93726        -0.017255     -0.011990      0.044401
O      13.63193     15.57884      2.70579        -0.017583     -0.010745      0.055906
O      13.63250     15.57924     15.93727        -0.017254     -0.011964      0.044379
O       1.93250      3.87924      7.11726        -0.017254     -0.011974      0.044416
O       1.93250     15.57924      7.11726        -0.017256     -0.011977      0.044425
O      13.63250      3.87924      7.11726        -0.017256     -0.011992      0.044402
O      13.63250     15.57924      7.11727        -0.017255     -0.011963      0.044382
O       1.93193      3.87884     11.52579        -0.017582     -0.010751      0.055872
O       1.93193     15.57883     11.52579        -0.017583     -0.010740      0.055866
O      13.63193      3.87883     11.52579        -0.017582     -0.010735      0.055880
O      13.63193     15.57884     11.52579        -0.017583     -0.010747      0.055909
O       1.93193      7.77883      2.70579        -0.017584     -0.010729      0.055893
O       1.93250      7.77924     15.93727        -0.017254     -0.011991      0.044399
O      13.63193      7.77883      2.70579        -0.017585     -0.010736      0.055886
O      13.63250      7.77924     15.93726        -0.017258     -0.011979      0.044410
O       1.93250      7.77924      7.11727        -0.017254     -0.011986      0.044402
O      13.63250      7.77924      7.11726        -0.017256     -0.011973      0.044409
O       1.93193      7.77883     11.52579        -0.017582     -0.010743      0.055889
O      13.63193      7.77883     11.52579        -0.017585     -0.010752      0.055884
O       1.93193     11.67883      2.70579        -0.017581     -0.010727      0.055890
O       1.93250     11.67924     15.93726        -0.017255     -0.011986      0.044412
O      13.63193     11.67883      2.70579        -0.017583     -0.010744      0.055911
O      13.63250     11.67924     15.93727        -0.017256     -0.011983      0.044388
O       1.93250     11.67924      7.11726        -0.017257     -0.011992      0.044413
O      13.63250     11.67924      7.11727        -0.017255     -0.011990      0.044387
O       1.93193     11.67883     11.52579        -0.017582     -0.010732      0.055881
O      13.63193     11.67883     11.52579        -0.017585     -0.010734      0.055913
O       5.83193      3.87883      2.70579        -0.017579     -0.010742      0.055873
O       5.83250      3.87924     15.93726        -0.017262     -0.011976      0.044419
O       5.83193     15.57883      2.70579        -0.017580     -0.010729      0.055901
O       5.83250     15.57924     15.93727        -0.017262     -0.011979      0.044393
O       5.83250      3.87924      7.11726        -0.017261     -0.011994      0.044419
O       5.83250     15.57924      7.11727        -0.017260     -0.011955      0.044390
O       5.83193      3.87883     11.52579        -0.017582     -0.010731      0.055869
O       5.83193     15.57883     11.52579        -0.017582     -0.010739      0.055895
O       5.83193      7.77883      2.70579        -0.017578     -0.010731      0.055871
O       5.83250      7.77924     15.93726        -0.017260     -0.012003      0.044415
O       5.83250      7.77924      7.11726        -0.017259     -0.011990      0.044417
O       5.83193      7.77883     11.52579        -0.017580     -0.010740      0.055867
O       5.83193     11.67884      2.70579        -0.017580     -0.010763      0.055897
O       5.83250     11.67924     15.93726        -0.017261     -0.011958      0.044392
O       5.83250     11.67924      7.11726        -0.017260     -0.011984      0.044387
O       5.83193     11.67884     11.52579        -0.017580     -0.010753      0.055892
O       9.73193      3.87884      2.70579        -0.017580     -0.010753      0.055899
O       9.73250      3.87924     15.93727        -0.017256     -0.011963      0.044398
O       9.73193     15.57883      2.70579        -0.017580     -0.010739      0.055888
O       9.73250     15.57924     15.93726        -0.017257     -0.011977      0.044405
O       9.73250      3.87924      7.11727        -0.017257     -0.011966      0.044397
O       9.73250     15.57924      7.11726        -0.017257     -0.011973      0.044408
O       9.73193      3.87884     11.52579        -0.017580     -0.010766      0.055894
O       9.73193     15.57883     11.52579        -0.017577     -0.010730      0.055885
O       9.73193      7.77883      2.70579        -0.017578     -0.010712      0.055913
O       9.73250      7.77924     15.93727        -0.017258     -0.011984      0.044383
O       9.73250      7.77924      7.11727        -0.017259     -0.011992      0.044383
O       9.73193      7.77883     11.52579        -0.017579     -0.010745      0.055905
O       9.73193     11.67883      2.70579        -0.017579     -0.010766      0.055904
O       9.73250     11.67924     15.93726        -0.017259     -0.011996      0.044391
O       9.73250     11.67924      7.11726        -0.017258     -0.011991      0.044391
O       9.73193     11.67883     11.52579        -0.017577     -0.010730      0.055897
