  # total energy = -7884.37237421 
CRSYTAL
PRIMVEC
    15.3600000000000000    0.0000000000000000    0.0000000000000000
     0.0000000000000000   15.3600000000000000    0.0000000000000000
     0.0000000000000000    0.0000000000000000    17.440000000000000
PRESSURE
2.26291 1.90489 -1.74766 0.314947 0.437499 -0.027848
PRIMCOORD
320 1
Pb       3.82401      3.74593      4.34790         0.061893      0.273945     -0.023588
Pb       3.78580      3.74291     17.40791         0.227495      0.232166     -0.102749
Pb       3.76958     15.28916      4.37709         0.315475     -0.260106     -0.300375
Pb       3.68962     15.28684     17.30624         0.700890      0.058078      0.526399
Pb       0.06301      3.72822      4.29301        -0.311020      0.426897      0.276930
Pb       0.09497      3.85422     17.43142        -0.168639     -0.158895      0.021362
Pb       0.04679     15.31760      4.27193        -0.099423      0.083015      0.390751
Pb      15.25835     15.26560     17.40167         0.587705      0.243432      0.076265
Pb       3.73292      3.81077      8.75965         0.146177      0.203809     -0.304878
Pb       3.85230      0.03288      8.63536        -0.364816     -0.213114      0.115995
Pb      15.26849      3.96165      8.70675         0.206014     -0.508172      0.055593
Pb      15.19855      0.04209      8.74375         0.480083      0.088369      0.347684
Pb       3.77925      3.76932     12.95851         0.497956      0.495601      0.572554
Pb       3.72519      0.01919     12.90421         0.335700     -0.053968      0.352622
Pb       0.04032      3.76070     13.08736        -0.029185     -0.443884      0.079625
Pb      15.32923     15.28017     13.03207         0.172165      0.389902      0.158588
Pb       3.82329      7.64875      4.32733         0.122715     -0.013443      0.053414
Pb       3.76544      7.53740     17.33796         0.077751      0.448700      0.593385
Pb       0.06245      7.80574      4.29825         0.176989     -0.598984      0.210160
Pb      15.19572      7.59711     17.37743         0.749306      0.150784      0.553016
Pb       3.81442      7.73144      8.70254         0.212659     -0.203727     -0.254402
Pb      15.34827      7.67002      8.68889        -0.039660      0.155031      0.041779
Pb       3.79909      7.56848     12.95609         0.142395     -0.007170      0.321996
Pb      15.33379      7.56965     13.11388         0.261342      0.658142     -0.054000
Pb       3.81648     11.54567      4.31810        -0.007996     -0.294831      0.242602
Pb       3.82235     11.55020     17.34704         0.108554     -0.423125      0.099304
Pb      15.26590     11.55040      4.32852         0.641372     -0.113298      0.096962
Pb      15.24703     11.54795     17.30502         0.229239     -0.258071      0.432272
Pb       3.85108     11.51103      8.70065        -0.204052      0.277598     -0.038613
Pb      15.26024     11.45653      8.73040         0.481327      0.127409      0.673548
Pb       3.83396     11.43100     12.97739        -0.122955      0.269863      0.192533
Pb       0.12365     11.52874     13.03458        -0.291517     -0.455709      0.367845
Pb       7.71418      3.67928      4.31326         0.049216      0.636394      0.741353
Pb       7.55571      3.80021      0.02542         0.063234     -0.155696     -0.386750
Pb       7.74713     15.27280      4.37691        -0.461679      0.093073      0.634224
Pb       7.60459     15.35061     17.39792        -0.116518     -0.158394      0.241057
Pb       7.64860      3.87124      8.62276         0.288285     -0.271095      0.333086
Pb       7.63957     15.34646      8.66927         0.084575      0.048498     -0.231321
Pb       7.80107      3.94039     13.03446        -0.355222      0.332176      0.749810
Pb       7.56511      0.16045     12.95584         0.141490     -0.913306      1.039460
Pb       7.73541      7.58191      4.32407        -0.163231      0.099119      0.034680
Pb       7.52868      7.73258     17.40061         0.177990     -0.128402      0.255866
Pb       7.69221      7.67923      8.67747         0.020658      0.071532      0.052145
Pb       7.63107      7.69389     12.97575         0.443075     -0.111399      0.401911
Pb       7.69602     11.46900      4.35493        -0.426921     -0.439258      0.012277
Pb       7.61485     11.50447     17.40954        -0.206102      0.253096     -0.304627
Pb       7.63117     11.56688      8.64480         0.055123      0.057746      0.136361
Pb       7.67753     11.49028     12.94191         0.164808      0.089733      0.682155
Pb      11.42162      3.75638      4.23851         0.397985      0.993982      0.773094
Pb      11.63020      3.80466      0.03774        -0.335936      0.483919      0.161188
Pb      11.52696     15.21552      4.33934         0.062492      0.323656      0.278307
Pb      11.35860     15.26783      0.06766         0.104686      0.042494     -0.016565
Pb      11.37225      3.93001      8.65046         0.376439     -0.375343      0.644601
Pb      11.47340      0.01844      8.66806        -0.032787      0.026642      0.536692
Pb      11.59656      3.73132     13.15079        -0.072976      0.254704      0.022495
Pb      11.56365     15.34478     12.97445        -0.109208      0.160358      0.725104
Pb      11.45857      7.65436      4.22682         0.041915     -0.286614      0.438307
Pb      11.51061      7.65090      0.01083         0.026613      0.109776     -0.067127
Pb      11.52240      7.70013      8.66192         0.253210      0.129031      0.321936
Pb      11.45255      7.60540     13.10496        -0.196214      0.042343      0.240949
Pb      11.54936     11.47248      4.24764         0.054586     -0.162164      0.343490
Pb      11.36472     11.45519     17.39724         0.321952     -0.063187     -0.215956
Pb      11.58852     11.51441      8.61138        -0.272678     -0.018599      0.816883
Pb      11.56270     11.47723     13.02138        -0.331806     -0.105516      0.687772
Ti       1.95595      1.85330      2.34101         0.233990      0.883570     -2.246794
Ti       1.91994      1.88543     15.42788        -0.044239      0.270420     -1.061563
Ti       1.86402     13.34688      2.29904         0.895942      0.111562     -0.897279
Ti       1.84269     13.40294     15.37609         0.452382      0.180202      0.013925
Ti      13.51235      1.85851      2.40089        -0.469987      1.306374     -0.838896
Ti      13.41906      1.87510     15.58185         0.630710      0.380048     -2.069927
Ti      13.40882     13.44660      2.32830         0.066772     -0.458628     -0.829701
Ti      13.34969     13.43545     15.40499         0.499122     -0.696272     -0.706377
Ti       1.88642      1.90453      6.69334         0.279130     -0.092332      0.051588
Ti       1.84744     13.41271      6.75258         1.532264      0.027655      0.271174
Ti      13.47378      2.01726      6.69945        -0.354229     -0.584310     -0.142409
Ti      13.49067     13.48845      6.76144        -0.917245     -0.503887     -1.678834
Ti       1.91657      1.96048     10.98938        -0.410433     -0.485350     -0.690990
Ti       1.92439     13.44891     11.01580         0.368633     -0.638238     -2.112427
Ti      13.38475      1.87206     11.09304         1.161860      0.569216     -0.251463
Ti      13.45955     13.37809     11.16967         0.475686      0.345476     -1.365508
Ti       1.88757      5.74315      2.37552         0.687616      0.021656     -1.327178
Ti       1.85458      5.74067     15.38591         0.498873     -0.107594     -0.661770
Ti      13.46198      5.70302      2.40475        -0.491101     -0.061172     -1.395831
Ti      13.39768      5.77085     15.38132        -0.252963      0.004891      0.086300
Ti       1.88621      5.72428      6.67416         0.895590      0.298969     -0.786963
Ti      13.45325      5.78586      6.63845        -0.613406      0.374305     -0.630093
Ti       1.86318      5.76572     11.02954         1.530290      0.244599     -0.308460
Ti      13.46562      5.71176     11.16821        -0.272597      0.033844     -0.007209
Ti       1.94421      9.58247      2.25458         1.228416      0.076335     -0.473673
Ti       1.82454      9.59454     15.48110         0.922062     -0.192821     -1.439206
Ti      13.53480      9.54451      2.33339        -1.108653      0.581145     -1.685961
Ti      13.40167      9.55585     15.38199         0.081432      0.524721     -0.510903
Ti       1.92679      9.64248      6.76848         1.009721      0.008491     -1.526578
Ti      13.52534      9.61930      6.65909        -1.417406     -0.608572      0.089958
Ti       1.95729      9.60426     11.06880        -0.816656      0.201472     -1.027682
Ti      13.45934      9.54437     11.18424         0.865773      0.235368     -0.852171
Ti       5.84661      1.80883      2.49682        -1.305718     -0.180789     -1.670041
Ti       5.76683      1.85169     15.39889         0.454761      0.537566     -0.671226
Ti       5.78787     13.37632      2.41962        -1.000844      0.142380     -1.303128
Ti       5.71209     13.39322     15.31094         0.618481      0.476886     -0.392254
Ti       5.76053      2.01447      6.69482        -0.219511     -0.628054     -0.051171
Ti       5.72512     13.50432      6.69318        -0.475939     -0.626878     -1.042058
Ti       5.83465      1.96529     10.99523        -1.697907      0.183578     -0.970283
Ti       5.78370     13.43310     11.05211        -0.554757     -0.015341     -0.426315
Ti       5.72052      5.65757      2.37728        -0.066740      0.759536     -1.472644
Ti       5.70575      5.73754     15.43167         0.487071     -0.537961     -1.088544
Ti       5.74947      5.73734      6.71771        -0.307584      1.086456     -0.888089
Ti       5.85858      5.74341     11.00268        -1.740728      0.003671      0.739747
Ti       5.76382      9.47679      2.40473        -0.313192      1.502952     -1.134357
Ti       5.68412      9.58371     15.31073        -0.037099      0.257297     -0.041077
Ti       5.83079      9.60034      6.70263        -0.656576     -0.409890     -0.818803
Ti       5.79338      9.61067     11.03285         0.016353      0.110389     -0.122754
Ti       9.69597      1.87429      2.43392        -1.040237      0.114021     -0.803921
Ti       9.66675      1.92260     15.52186        -1.399114      0.620139     -0.514718
Ti       9.54506     13.42005      2.40595         0.258819      0.097077     -1.073440
Ti       9.56668     13.53416     15.33136        -0.430321     -1.401889      0.987552
Ti       9.65696      1.85935      6.71057        -1.472229      1.144946     -0.816085
Ti       9.63393     13.42617      6.69674        -0.680777      0.183064      0.053999
Ti       9.57821      1.93446     11.13500         1.085648      0.569396     -1.433842
Ti       9.61635     13.48251     11.11569        -0.173567     -0.220248     -1.566443
Ti       9.53542      5.71908      2.26926         0.772268      0.278754      0.738031
Ti       9.57856      5.78837     15.59980        -0.486372     -0.388553     -1.504986
Ti       9.64349      5.76942      6.70196        -0.731362     -0.433361     -1.590664
Ti       9.71617      5.76548     11.04013        -0.481464      0.039838     -0.501666
Ti       9.62488      9.59775      2.33624        -0.765582     -0.433393      0.094323
Ti       9.51639      9.59613     15.44163         0.777984      0.359453     -1.615764
Ti       9.66826      9.60790      6.70173        -0.103742      0.175719     -1.277967
Ti       9.69696      9.62143     11.05215        -0.855182     -0.766926      0.326156
O       1.83815      2.00805      0.44341         0.604635     -0.356471      1.778100
O       2.00808      1.91963     13.60749        -0.311557     -0.125708      0.289870
O       1.84741     13.41135      0.50378         0.145552      0.110680      0.716200
O       1.78190     13.43769     13.62592         0.353061      0.129313     -0.643889
O      13.45423      1.93096      0.62536         0.023640     -0.145383     -0.556347
O      13.48582      1.90500     13.74779        -0.551412     -0.037809      0.854143
O      13.48159     13.55309      0.54950        -0.231770     -0.366507      0.164632
O      13.47776     13.45472     13.62374        -0.211233      0.291791      0.272126
O       1.89746      1.88230      4.90087        -0.306509      0.223248     -0.469648
O       1.88077     13.38451      4.97733        -0.062407      0.157267     -0.364276
O      13.60902      2.00016      4.96719        -0.400616     -0.498161     -0.779131
O      13.36059     13.50872      4.93571         0.271010     -0.196220      0.715402
O       2.00831      2.02151      9.19314        -0.369107     -0.220547      0.680758
O       1.96155     13.30887      9.19936        -0.344143      0.457243      0.481820
O      13.43428      1.94296      9.34566         0.123634     -0.224660     -0.981026
O      13.43829     13.39242      9.35897         0.149832     -0.069842     -0.197890
O       1.97915      5.83296      0.54329        -0.193261     -0.788914      0.686179
O       1.90671      5.72388     13.58694        -0.234521      0.204672      0.741602
O      13.53285      5.76763      0.58047        -0.331036     -0.077901      0.854305
O      13.38686      5.81162     13.60154         0.120587     -0.073389     -0.350348
O       1.98980      5.73753      4.85015        -0.403347      0.016395      1.160590
O      13.31668      5.81696      4.89541         0.388573     -0.025244     -0.306783
O       1.94322      5.70997      9.22436        -0.621537      0.132212      0.509070
O      13.44870      5.68259      9.42171         0.418988      0.120055     -0.849540
O       2.06398      9.59426      0.49364        -0.495487      0.108749      0.081291
O       1.85501      9.69780     13.65278         0.176141     -0.473224      0.673344
O      13.57345      9.58683      0.52134        -0.363133     -0.120608      1.440021
O      13.43500      9.58124     13.59394        -0.116665     -0.298847     -0.030911
O       1.84607      9.84403      4.95183        -0.121829     -1.102081      0.987744
O      13.46486      9.57598      4.89597         0.282168      0.166710     -0.506899
O       1.98590      9.66273      9.25696        -0.280328     -0.347383      0.300099
O      13.48703      9.67993      9.37650        -0.126510     -0.124963      0.144970
O       5.90155      1.86513      0.67958        -0.236665      0.089021      0.650571
O       5.78689      1.84362     13.60946        -0.065002      0.044812      0.386820
O       5.79699     13.42191      0.60861         0.000547     -0.348524      0.499072
O       5.79851     13.40220     13.54503        -0.205909      0.101117      0.284516
O       5.76608      2.02657      4.92341        -0.273822     -0.198412     -0.553520
O       5.63583     13.49493      4.89420         0.419752      0.103904      0.885882
O       5.73669      2.01421      9.19043         0.147166     -0.299767      1.059290
O       5.73605     13.39840      9.27578         0.508158      0.203101     -0.582523
O       5.66436      5.70003      0.54588         0.038948     -0.185985      0.756980
O       5.69251      5.70063     13.65036         0.411844      0.299533      0.131964
O       5.72014      5.80232      4.89844         0.210867     -0.063370      0.818103
O       5.79026      5.70232      9.26847         0.211206      0.224645     -0.302070
O       5.81934      9.59799      0.58984        -0.050290      0.257020      0.528347
O       5.73705      9.63504     13.50887        -0.068225     -0.005182      0.807205
O       5.87820      9.46008      4.92643        -0.174591      0.135684      0.206460
O       5.79608      9.64451      9.26006         0.066844     -0.021297      0.185861
O       9.58012      1.82463      0.68956         0.329082     -0.005449     -0.363853
O       9.70452      1.98179     13.75031        -0.108955      0.005761     -0.738029
O       9.57661     13.57732      0.63758         0.169580     -0.560109      0.210456
O       9.57183     13.50733     13.62451         0.237180      0.012491     -1.766962
O       9.62570      2.00243      4.93969        -0.047460     -0.411031     -0.537024
O       9.52555     13.58106      4.90414         0.707713     -0.762131      0.149052
O       9.67563      1.90199      9.37515        -0.449069     -0.155619     -0.218220
O       9.51339     13.55602      9.29211         0.384899      0.094616      1.064949
O       9.68774      5.88348      0.55669        -0.328148     -0.258364     -1.606780
O       9.52545      5.79965     13.76810         0.284730     -0.361465      0.614585
O       9.52950      5.71157      4.85948         0.416623      0.160380      1.712359
O       9.67985      5.80129      9.26276         0.050781     -0.136778     -0.313736
O       9.64818      9.65364      0.57664        -0.171544     -0.190750     -0.577133
O       9.60683      9.57792     13.63598        -0.057939     -0.037917      0.406951
O       9.73861      9.69085      4.88227        -0.559487     -0.114052      1.004043
O       9.74725      9.50888      9.33038        -0.223030      0.074792     -1.369365
O       3.84456      1.91260      2.71310        -0.448970      0.368877      0.241632
O       3.86340      1.80542     15.77414         0.281592      0.600080      0.414326
O       3.82480     13.31768      2.69443        -1.051045      0.189684      0.121660
O       3.75167     13.52278     15.65502         1.062342     -0.241829      0.471914
O       0.03741      1.87728      2.71128        -0.012648     -0.124814      0.400224
O       0.04552      1.99659     15.74215        -1.620719     -0.319757      0.507506
O      15.27728     13.38763      2.70078         1.116092      0.541765      0.327653
O       0.00319     13.54066     15.75560        -0.923037     -0.261885      0.440493
O       3.76237      2.03663      6.98033         0.807974      0.053427      0.383583
O       3.84445     13.42635      7.08803         0.087174      0.103296      0.153239
O      15.31904      1.86225      7.08375         0.019337      0.079590      0.538933
O       0.00171     13.36229      7.01678        -0.534385      0.351168      0.455411
O       3.83451      1.90052     11.43368         0.380108     -0.270466     -0.297474
O       3.85068     13.47796     11.29895        -0.065400      0.003655      0.731163
O       0.04387      1.89896     11.37125         0.035040      0.336045      0.339285
O       0.01910     13.43483     11.44770        -0.168503     -0.227437      0.115647
O       3.82574      5.70943      2.76098        -0.059345     -0.421745      0.131637
O       3.83208      5.73070     15.70681        -0.744923      0.161122      0.508297
O       0.01545      5.81755      2.66776        -0.587774      0.061761      0.636454
O      15.25136      5.78419     15.72756         1.568186     -0.236054      0.180330
O       3.86949      5.81768      7.09664        -0.351016     -0.523760     -0.127450
O      15.33194      5.84685      7.00477         0.373419     -0.356723      0.399641
O       3.78416      5.76380     11.46631         0.559733     -0.022694     -0.282788
O       0.04072      5.68751     11.52323        -0.445864      0.192743     -0.075068
O       3.82437      9.65603      2.74077        -0.277836      0.099725      0.244645
O       3.80150      9.66442     15.76637         0.606517     -0.418901     -0.126586
O       0.03457      9.57131      2.70338        -0.488240     -0.317579      0.168310
O      15.33969      9.65361     15.78200         0.302270     -0.629379      0.265499
O       3.88183      9.54515      7.05428        -0.234128      0.158368      0.177530
O      15.34926      9.62013      7.07908         0.320452     -0.181430      0.349669
O       3.83530      9.59564     11.40261         0.387581      0.209991      0.225525
O       0.03494      9.58368     11.42253         0.029630      0.409788      0.243238
O       7.65333      1.72593      2.87368         1.015078      0.445309     -0.093158
O       7.70156      1.92582     15.84597        -0.203670      0.062716      0.085838
O       7.67295     13.50542      2.75779         0.366619     -0.013512      0.350129
O       7.72669     13.36261     15.73380        -1.004671     -0.023719      0.257780
O       7.64188      1.91773      7.02232         0.428214      0.014611      0.443469
O       7.67459     13.46779      7.08816        -0.115880      0.353407      0.060447
O       7.67912      2.04187     11.48822         0.168683     -0.228447     -0.258611
O       7.75436     13.38292     11.46560        -0.350915      0.131893     -0.172750
O       7.67607      5.77368      2.54785        -0.875084      0.393973      0.625935
O       7.62560      5.74135     15.83654         0.547142     -0.148565      0.458433
O       7.76143      5.73621      7.17096        -0.498748      0.483533     -0.310854
O       7.66756      5.74868     11.47769         0.510571     -0.341784     -0.217535
O       7.63509      9.46537      2.76286         1.121994      0.399901      0.158587
O       7.66379      9.67693     15.74596        -0.640152      0.079614      0.246839
O       7.73136      9.57435      7.11709         0.439187      0.169850      0.055028
O       7.71469      9.61375     11.45071        -0.232689      0.077256     -0.267946
O      11.55467      1.95632      2.84719         0.146477     -0.590749     -0.477101
O      11.48640      1.95926     15.93656         1.461457     -0.693741      0.258026
O      11.51722     13.32530      2.66979        -0.080061      0.698783      0.467521
O      11.49078     13.37853     15.70075         0.482717      0.365063      0.558230
O      11.45689      1.97334      7.03388         1.782363     -0.371069      0.390065
O      11.47223     13.49912      7.18667         0.475339     -0.371309     -0.461693
O      11.54729      1.87698     11.40083        -0.507455     -0.164503      0.837654
O      11.57927     13.49696     11.49701        -1.051212      0.074289      0.028834
O      11.45141      5.65108      2.58973         0.938132     -0.038701      0.729032
O      11.53768      5.88917     15.79956        -0.601338      0.000267      0.405955
O      11.58214      5.78362      7.17577        -0.884261     -0.197611     -0.371913
O      11.57027      5.78703     11.42038         0.133327      0.264977      0.504834
O      11.48488      9.75831      2.67444         0.901475     -0.858022      0.060029
O      11.57702      9.47340     15.76979        -0.994940      0.661451      0.490959
O      11.58727      9.57275      7.00038        -0.603132      0.465734      0.560952
O      11.53285      9.49648     11.45258         0.455859      0.074253      0.459771
O       1.79256      3.82010      2.66454         0.582073     -0.287894      0.194670
O       1.83797      3.84432     15.75813         0.687412      0.384801      0.344406
O       1.92028     15.35683      2.63252        -0.121665     -0.897149      0.379013
O       1.92565      0.06000     15.79286        -0.546429     -1.112771      0.071956
O      13.46959      3.77995      2.73746         0.247965      0.646146      0.267763
O      13.31386      3.91989     15.79867         0.304025     -1.180174      0.174695
O      13.47235      0.03084      2.73154        -0.457038     -1.309065      0.398452
O      13.40210     15.32618     15.81890        -0.061227      0.589422      0.252726
O       1.82970      3.82118      7.11622        -0.090798      1.009276     -0.280125
O       1.99476      0.03953      7.05673        -0.553828     -0.964694      0.215035
O      13.45035      3.85787      7.00975         0.184448      0.412934      0.466912
O      13.44248     15.29869      7.12258        -0.148355      1.149390      0.276443
O       1.96411      3.86000     11.41413        -0.302696     -0.537521     -0.114356
O       1.86565     15.29745     11.25972         0.331977      1.482575      0.620661
O      13.44041      3.78472     11.56092         0.127449      0.238445      0.125109
O      13.54810     15.34007     11.42405        -0.467481      0.130701      0.388697
O       1.96507      7.66020      2.67562        -0.178804      0.605053      0.532147
O       1.91004      7.60873     15.87335        -0.285970      0.581827     -0.649055
O      13.29646      7.62354      2.68370         0.555512      1.119265      0.191447
O      13.50337      7.70435     15.85001        -0.228285     -0.483238     -0.269431
O       1.96467      7.65042      7.11655        -0.630333      0.265576     -0.096806
O      13.43655      7.69732      7.11508         0.333816      0.206980      0.105925
O       1.93903      7.70198     11.42434        -0.368685     -0.496159     -0.001307
O      13.56141      7.69283     11.47842        -0.283300     -0.852993      0.108431
O       1.86213     11.48886      2.67865        -0.301594      0.400991      0.026207
O       1.86561     11.52051     15.74937         0.062777      0.342641      0.388085
O      13.48069     11.49955      2.67055        -0.083611     -0.127884      0.270026
O      13.53213     11.47318     15.74401        -0.718912      1.084431      0.188338
O       1.95796     11.48101      7.13771        -0.162222      0.582048      0.118733
O      13.40371     11.53836      7.12120         0.214856     -0.113225     -0.251909
O       1.92644     11.55932     11.38988         0.133412     -0.814146      0.542511
O      13.42485     11.55228     11.63815         0.044351     -0.915425     -0.644453
O       5.87987      3.82121      2.78981        -0.556768     -0.570725     -0.159467
O       5.73769      3.81722     15.78519        -0.009341     -0.548636      0.413964
O       5.60175     15.25266      2.82587         0.575862      1.071247      0.145405
O       5.87779     15.30214     15.76129        -0.523065      0.056313      0.029877
O       5.78292      3.87195      7.13431        -0.048351      0.485682     -0.162839
O       5.68273      0.11669      7.06033         0.125351     -1.209014      0.193477
O       5.72087      3.82397     11.39732         0.124540      0.081822      0.037910
O       5.80352     15.32185     11.32756         0.377621      1.407526      0.271386
O       5.59956      7.67840      2.63322         0.400343     -1.414121      0.579942
O       5.84404      7.73886     15.81223        -0.705287     -0.351648     -0.470121
O       5.81662      7.68757      7.19570         0.115235     -0.586642     -0.091974
O       5.72800      7.71483     11.39638         0.269936     -0.619402     -0.065370
O       5.84704     11.50409      2.88996        -0.009647     -0.105395     -0.208724
O       5.66991     11.53113     15.73849         0.315785     -0.092599      0.228813
O       5.79376     11.52710      6.90578         0.225357      0.201482      0.629322
O       5.69259     11.56999     11.38433         0.493476     -1.107496      0.341660
O       9.49055      3.79605      2.72719         0.159939     -0.286039     -0.116935
O       9.69926      3.79676     15.98435        -0.419682      1.042231     -0.066967
O       9.67126      0.00718      2.76831         0.168683     -0.818806      0.532199
O       9.60774     15.35564     15.89596         0.240307      0.173917     -0.145008
O       9.52732      3.81266      7.13950         0.672311      0.649864     -0.089576
O       9.59735      0.01690      7.01718        -0.070977     -0.680121      0.560954
O       9.80177      3.89193     11.38559        -0.912688     -0.912432      0.812619
O       9.56917      0.07091     11.50126         0.104664     -0.647649      0.064305
O       9.61586      7.64869      2.76559         0.169461      0.466284     -0.208889
O       9.54314      7.71826     15.80095        -0.002573     -0.255724      0.629136
O       9.64132      7.70140      6.97186         0.044190     -0.240469      0.345147
O       9.55921      7.57398     11.39964         0.122776      1.373472      0.664615
O       9.53063     11.50701      2.64916        -0.333726      0.334193      0.511173
O       9.67146     11.52095     15.81657        -0.113958     -0.198326      0.234388
O       9.55155     11.54881      7.18885         0.489781     -0.226035     -0.566979
O       9.73253     11.49028     11.32499        -0.186020      0.827501      0.450918
