  # total energy = -7881.04169583 
CRSYTAL
PRIMVEC
    15.6000000000000000    0.0000000000000000    0.0000000000000000
     0.0000000000000000   15.6000000000000000    0.0000000000000000
     0.0000000000000000    0.0000000000000000    17.640000000000000
PRESSURE
-4.42642 -4.25272 -0.728145 -0.121153 -0.094364 -0.000401
PRIMCOORD
320 1
Pb       3.75692      3.77237      4.40729        -0.023823     -0.447220     -0.020190
Pb       3.92097      3.93950     17.59587         0.066669      0.132372     -0.254486
Pb       3.84710     15.48139      4.32999        -0.202322      0.123960     -0.502557
Pb       3.76462     15.57688     17.56202         0.246120     -0.078960     -0.250032
Pb       0.03913      3.90256      4.34919        -0.328712     -0.451267      0.388626
Pb      15.59957      4.00393     17.63946        -0.000345      0.086085     -0.248765
Pb      15.53872     15.51195      4.29049         0.032010      0.411585     -0.138765
Pb      15.45856      0.01638     17.56773        -0.176442      0.141542     -0.298928
Pb       3.79764      3.98636      8.80169         0.190509      0.002954     -0.210497
Pb       3.83889      0.04889      8.72423         0.269760     -0.205152     -0.265185
Pb      15.54649      3.96416      8.75828        -0.311587     -0.012508     -0.350182
Pb      15.58388     15.58466      8.72985        -0.148079      0.068571     -0.420744
Pb       3.94204      3.60540     13.24232        -0.098262      0.187268      0.282659
Pb       3.79988     15.48130     13.13258         0.058842      0.581309      0.180906
Pb       0.02148      3.79161     13.18295        -0.451843      0.132375     -0.446843
Pb      15.56616      0.11541     13.12599         0.299021     -0.478525      0.291034
Pb       3.88467      7.78418      4.42347         0.502716      0.135169     -0.379903
Pb       3.95573      7.81658     17.61241         0.174407     -0.277240     -0.568260
Pb       0.09017      7.95820      4.41852        -0.692325     -0.253601     -0.597979
Pb       0.08218      7.86054     17.50080        -0.099631     -0.471318      0.049164
Pb       3.92716      7.91844      8.84898         0.056781     -0.326039     -0.096298
Pb      15.52319      7.81564      8.90138         0.163651     -0.263634     -0.109761
Pb       3.93308      7.74212     13.12972        -0.016572      0.248123     -0.134907
Pb       0.11423      7.87122     13.19348        -0.067154     -0.100850     -0.444494
Pb       3.91880     11.65525      4.37376        -0.444923      0.203825     -0.497870
Pb       3.93268     11.64840     17.59817        -0.360405      0.017706     -0.699554
Pb      15.53058     11.58910      4.30712         0.318029     -0.247568     -0.711146
Pb      15.54781     11.66223     17.48055         0.276377     -0.147703     -0.410411
Pb       3.84335     11.62008      8.79300        -0.308363      0.270009     -0.196906
Pb      15.48406     11.83059      8.77266         0.684122     -0.416344      0.542976
Pb       3.81523     11.83029     13.13677         0.460493     -0.371965      0.234300
Pb      15.47816     11.67057     13.15500        -0.230103      0.126378     -0.342140
Pb       7.86045      3.63526      4.56082        -0.062948      0.358809     -0.555485
Pb       7.75619      3.83821     17.57644         0.173911      0.120880     -0.418619
Pb       7.65388     15.42062      4.37601         0.118491      0.231777     -0.590751
Pb       7.71839      0.01190     17.61384         0.105302     -0.247376     -0.764513
Pb       7.59215      3.94353      8.76080         0.754864     -0.214853      0.324916
Pb       7.81962     15.58112      8.73055        -0.302065      0.242785      0.289901
Pb       8.05888      4.00769     13.10976        -0.135410     -0.760663     -0.134666
Pb       7.81447      0.05853     13.21551        -0.369906     -0.021471     -0.265983
Pb       7.96911      7.70857      4.38814        -0.583413      0.198114     -0.065697
Pb       7.82314      7.89435      0.04783        -0.345765      0.050800     -0.325008
Pb       7.70455      7.84196      8.72378        -0.064761      0.156359      0.206478
Pb       7.73226      7.93386     13.12114        -0.227702      0.000315     -0.566250
Pb       7.87305     11.71520      4.42756        -0.264025     -0.437665     -0.581004
Pb       7.76683     11.72599      0.02379         0.282730     -0.208053     -0.800336
Pb       7.85863     11.74820      8.94703        -0.443807     -0.372722     -0.303071
Pb       7.78711     11.81731     13.19174         0.044284      0.150355     -0.423000
Pb      11.68768      3.87163      4.44199         0.182792      0.027101     -0.188127
Pb      11.82951      3.81948      0.01519        -0.118411      0.034078     -0.344297
Pb      11.50214     15.35931      4.44381         0.226071      0.412821     -0.863227
Pb      11.41774     15.45411      0.00058         0.555014      0.312061     -0.339049
Pb      11.52669      3.93911      8.81275         0.206843     -0.010056     -0.302857
Pb      11.85609      0.07277      8.70044        -0.431168     -0.241944     -0.022890
Pb      11.82758      3.95050     13.19323        -0.211964     -0.330500     -1.029575
Pb      11.68099     15.53520     13.15475         0.162580      0.358101     -0.040081
Pb      11.78001      7.61414      4.25682        -0.333485      0.486697      0.058691
Pb      11.65999      7.68007     17.49460         0.387529      0.112113      0.037952
Pb      11.54840      7.81557      8.70974         0.190695     -0.529090     -0.181556
Pb      11.75032      7.69346     13.23107        -0.149078      0.404690     -0.440117
Pb      11.67081     11.63002      4.22626         0.171965     -0.263713     -0.516119
Pb      11.82840     11.55107     17.46404        -0.512102      0.143546     -0.609069
Pb      11.76667     11.61464      8.61170        -0.476226      0.467546      0.825059
Pb      11.58542     11.62624     13.01066        -0.060750      0.251582      0.472867
Ti       1.84441      1.88685      2.30929         0.281353     -0.245169      0.936531
Ti       1.90867      1.92884     15.68805         0.269611     -0.137343     -0.718929
Ti       1.83919     13.54637      2.32352         0.932278     -0.285209      0.865416
Ti       1.77609     13.63304     15.58161         1.730562     -0.049272     -0.496943
Ti      13.50270      1.91996      2.50677         0.221006     -0.302800      0.626954
Ti      13.66531      1.91559     15.45043        -0.355109     -0.098553      2.047436
Ti      13.59969     13.64461      2.30727        -0.515908     -0.247904      1.492670
Ti      13.50857     13.69653     15.48359         0.592015     -0.645632      1.661521
Ti       1.95445      1.95352      6.85039        -0.898011      0.361578     -0.938462
Ti       1.90018     13.61782      6.67636         0.741037     -0.552621      0.649264
Ti      13.62415      1.96860      6.74261         0.340200      0.890327      1.099907
Ti      13.61887     13.58980      6.67134         0.101532      1.269448      1.030855
Ti       1.94130      2.00749     11.13829        -0.420442     -1.436758      0.119546
Ti       1.85739     13.63636     11.22208        -0.323630      0.983069      2.002408
Ti      13.59959      1.91073     11.09096         0.337893      0.852751      1.527673
Ti      13.59098     13.64735     11.20563         0.536831      0.313803     -0.688746
Ti       1.99038      5.87491      2.56154        -0.691031     -0.157697     -1.245508
Ti       2.03818      5.83794     15.55105         0.081342      0.292339      0.764182
Ti      13.70499      5.87079      2.53851         0.206421     -0.380058     -1.637091
Ti      13.76231      5.77554     15.55918        -0.064746      0.502596      1.982302
Ti       1.92403      5.86893      6.83054        -0.238935     -0.036680      0.461862
Ti      13.62549      5.88440      6.72862        -0.485166     -0.875919      0.263358
Ti       1.92297      5.80543     11.30333        -0.530569      0.724773     -0.068469
Ti      13.65299      5.87286     11.17259         0.307439     -0.914268     -0.508989
Ti       1.97842      9.70439      2.24996        -0.669164      0.641368      1.399132
Ti       2.00636      9.73545     15.55709         0.568261     -0.328853      0.796439
Ti      13.62907      9.71433      2.07048         0.423126     -0.024885      1.592798
Ti      13.67219      9.63153     15.45396        -0.086283      0.704706      0.751857
Ti       1.81376      9.70859      6.85117        -0.119482      0.732018      0.170021
Ti      13.63895      9.71358      6.78428         0.238577     -0.854717     -0.586259
Ti       1.94712      9.85118     11.21035        -0.516906     -1.185046      0.412076
Ti      13.56969      9.68997     11.14146         0.611202      0.339857      0.981916
Ti       5.78457      1.99854      2.42507        -0.372664     -1.287868      0.327178
Ti       5.88739      1.90389     15.71834        -0.471223     -0.330272      0.754720
Ti       5.76839     13.57088      2.34714        -0.278454      0.386878      1.337475
Ti       5.76578     13.57754     15.63405         0.844411      0.475960     -0.745550
Ti       5.80533      1.95980      6.77978        -0.010124     -0.322044      0.867935
Ti       5.80275     13.61029      6.83814        -0.364833      0.217315      0.956486
Ti       5.84602      1.91094     11.17889         0.902568     -0.198719      0.460772
Ti       5.82216     13.67765     11.13183         0.903162      0.509159      1.717339
Ti       5.87495      5.79386      2.63085         0.031844      0.711632     -0.110370
Ti       5.92609      5.86484     15.45813        -0.475348     -0.001365      0.615769
Ti       5.81845      5.87138      6.82084         0.651343      0.548703     -0.560757
Ti       5.80208      5.67021     11.39078         0.259869      1.375234     -0.248615
Ti       5.87184      9.71256      2.45080         0.568365     -0.783159     -0.505443
Ti       5.90557      9.76554     15.49794        -0.638131     -0.584773      0.327832
Ti       5.78463      9.83094      6.80937         0.879735     -0.926956      1.440316
Ti       5.79616      9.84920     11.22126         0.408515     -1.163488     -1.098547
Ti       9.66861      1.88700      2.43063         0.753997     -0.488453      0.154120
Ti       9.80923      1.95186     15.64376        -0.338542     -0.810938      1.190491
Ti       9.67141     13.56279      2.33359         0.142526      0.054691      0.159139
Ti       9.67081     13.56158     15.58532        -0.089294      0.107080      0.104076
Ti       9.72783      1.82150      6.75903        -0.173985      1.020767      1.724822
Ti       9.69125     13.56533      6.81400        -0.319001      0.844717      0.133859
Ti       9.79421      1.94807     11.14060        -0.725276      1.210756     -0.524002
Ti       9.74110     13.77807     11.15114        -0.702827     -1.242423      0.474256
Ti       9.71147      5.73096      2.38846         0.342052      0.123273     -0.130410
Ti       9.77976      5.81847     15.65993        -0.007845     -0.153814      0.431088
Ti       9.75257      5.78649      6.74070        -0.280885      0.195849      0.389702
Ti       9.78509      5.99573     11.15976         0.070969     -2.158342     -0.762579
Ti       9.79760      9.67969      2.32741        -1.213780      0.007458      0.786517
Ti       9.72253      9.73131     15.53232         0.396233      0.313079     -0.383915
Ti       9.69659      9.74444      6.74635        -0.758332     -0.667099      1.554454
Ti       9.70289      9.77560     11.07294        -0.400350      0.658560      0.557005
O       1.78929      1.85473      0.56776         0.038789     -0.002196     -0.732502
O       1.97056      1.77878     13.93643         0.176568      0.461269      0.059248
O       1.95225     13.39560      0.60629        -0.099752      0.435610     -0.679215
O       1.79699     13.82219     13.81039         0.286381     -0.831168      0.189683
O      13.55994      1.82396      0.80017         0.152820      0.297058     -1.194034
O      13.67608      1.99914     13.75931        -0.371135      0.217632     -1.416847
O      13.52553     13.85421      0.62208         0.049542     -0.230904     -1.431807
O      13.53750     13.66211     13.80547         0.059614     -0.081866     -2.202879
O       1.97450      2.03840      5.09024         0.096051     -0.115961      0.045549
O       1.93520     13.51980      4.94126        -0.318585      0.155659     -0.259781
O      13.64142      2.07805      5.06076        -0.210649     -0.638368     -2.087722
O      13.60871     13.51417      4.94209        -0.016924     -0.054512     -0.413018
O       1.90708      2.00767      9.35330         0.122682      0.050408      0.358840
O       1.82605     13.56966      9.56029        -0.005507      0.235938     -2.252889
O      13.62330      1.97637      9.37219         0.136574     -0.430626     -1.444337
O      13.69400     13.65252      9.41473        -0.233971      0.201488      0.514103
O       2.02343      5.82524      0.80509        -0.131601      0.013129      0.084361
O       1.96218      5.97024     13.82853         0.007833     -0.214081     -0.496685
O      13.85835      5.79368      0.75159        -0.199883     -0.191810      0.350042
O      13.69023      5.77440     13.87804        -0.372314     -0.089332     -2.337886
O       1.96439      5.81272      5.08180         0.035585      0.260950     -0.264933
O      13.50661      5.91596      4.95582         0.259410      0.201213     -0.053319
O       1.83537      5.75227      9.55772         0.444907     -0.293892     -0.234550
O      13.57736      5.83323      9.43019         0.221161      0.042241     -0.544574
O       2.03666      9.66935      0.53768         0.008249      0.194554     -1.469773
O       2.04495      9.63673     13.84734        -0.240340      0.153335     -1.603802
O      13.67999      9.66903      0.33126        -0.171234      0.152670     -0.631216
O      13.64745      9.68406     13.70982        -0.084682     -0.038916     -0.536174
O       1.55731      9.74223      5.07409         0.773250     -0.068101      0.704730
O      13.71522      9.70011      5.00963         0.126699      0.368283      1.003232
O       1.94456      9.89194      9.49799         0.137419     -0.200015     -0.880205
O      13.65194      9.76303      9.42156        -0.481682      0.026717     -0.762956
O       5.82289      1.90734      0.70180         0.287702      0.044150     -1.055769
O       5.82790      1.81417     14.04946        -0.097079      0.317030     -2.462928
O       5.70769     13.58059      0.64723         0.225060     -0.291887     -1.873039
O       5.91754     13.55950     13.87446        -0.225224     -0.046380     -0.420069
O       5.74805      1.93765      5.05138         0.316569     -0.027051     -1.003173
O       5.71759     13.57693      5.12552         0.350074     -0.011135     -1.218569
O       5.84244      2.00654      9.47154        -0.379046      0.105748     -1.478911
O       5.97450     13.70492      9.45839        -0.466518     -0.078043     -2.172372
O       5.71273      5.91181      0.94158         0.078671     -0.145247     -1.506326
O       5.94684      5.85237     13.70411        -0.128025     -0.030119     -0.064932
O       5.99082      5.96494      5.06817        -0.572270     -0.227476     -0.042347
O       5.80592      5.71342      9.66470        -0.148906     -0.238249     -1.001605
O       5.94188      9.60232      0.66801        -0.282830      0.233657     -0.067124
O       5.97155      9.81314     13.75374         0.082979     -0.177261     -0.991896
O       5.85150      9.77112      5.10401        -0.342847      0.120374     -0.966707
O       5.86393      9.76738      9.43718        -0.638599      0.186289      0.070534
O       9.77967      1.74448      0.68656        -0.393915      0.315678     -0.425468
O       9.69927      2.00952     13.96569         0.193588     -0.031447     -2.361013
O       9.77638     13.51391      0.57964        -0.143074      0.301393     -0.359554
O       9.67043     13.52485     13.84536         0.005402      0.328980     -0.895654
O       9.66075      1.80956      5.04131        -0.163009      0.087902     -1.343451
O       9.58898     13.58932      5.03926         0.466499     -0.023319      0.213582
O       9.74380      2.02993      9.39100         0.269549     -0.486149     -0.070997
O       9.70288     13.70644      9.42691         0.113736      0.040223     -1.025365
O       9.81117      5.74709      0.62169        -0.284795      0.155623     -0.041517
O       9.86518      5.86541     13.92884         0.177621     -0.260036     -0.947147
O       9.73281      5.81118      4.97467        -0.230077      0.066757     -0.189384
O       9.96687      5.75013      9.42472        -0.420891      0.857907     -0.270267
O       9.75191      9.70736      0.61869        -0.334098     -0.205314     -1.682482
O       9.65006      9.72602     13.77009         0.083364     -0.192183     -0.141661
O       9.64952      9.76383      5.05409         0.112743      0.243785     -1.745546
O       9.70552      9.77058      9.33576         0.242325      0.037602     -0.755109
O       3.78264      1.91448      2.69955         0.904143      0.137876      0.451024
O       3.90638      1.87723     16.08070        -0.518203     -0.330548      0.504647
O       3.79939     13.52213      2.81134         0.590968     -0.028536      0.142162
O       3.91235     13.60387     15.93936        -0.942349     -0.034573      0.448925
O      15.57097      1.76009      2.83421        -0.357982      0.324693      0.091379
O      15.55230      1.99948     15.84233         0.379045     -0.224006      0.857242
O      15.49925     13.52491      2.65622         0.357657      0.652971      0.279388
O       0.03051     13.55204     16.08263        -1.815287     -0.027031     -0.051296
O       3.86427      2.04401      7.18365         0.192880     -0.143968      0.556365
O       3.84715     13.63972      7.16696        -0.184327     -0.151389      0.456596
O      15.55710      1.98643      7.06487         0.222437     -0.058201      0.836997
O       0.05431     13.61677      7.22456        -0.897723      0.481382     -0.493286
O       3.88639      1.85288     11.64477        -0.647142      0.478058     -0.113010
O       3.89960     13.67399     11.56451        -0.618169     -0.128678      0.044363
O       0.01116      1.91926     11.62217         0.114803      0.445073     -0.390649
O      15.47509     13.74147     11.69790         0.607350     -0.917594     -0.296547
O       3.83425      5.77017      3.01949         0.387196      0.378348      0.198943
O       3.95903      5.87716     16.01333        -0.055562     -0.294023     -0.038808
O       0.00811      5.87667      3.00201         0.031121     -0.219612     -0.261283
O       0.11077      5.83073     16.00500        -0.228317     -0.395012      0.289582
O       3.94623      5.89558      7.27567        -1.034228     -0.077399      0.025461
O      15.56731      5.89166      7.18483        -0.303716     -0.224953      0.007397
O       3.87560      5.80058     11.73679        -0.261180     -0.357567     -0.122319
O      15.55630      5.78838     11.59675         0.674121     -0.044829      0.505839
O       3.80983      9.65797      2.80648         0.902735      0.259712      0.205326
O       4.00216      9.69897     15.87062        -0.538798      0.095681      0.655184
O      15.53161      9.65820      2.59223        -0.065307      0.539468      0.190093
O       0.05879      9.68101     15.77768        -0.585301      0.364824      0.633389
O       3.74312      9.77184      7.26080         0.889502     -0.178886     -0.255189
O      15.55637      9.68301      7.42845        -0.485612      0.426857     -0.748087
O       3.85317      9.93923     11.54791         0.458793     -0.627715      0.354889
O      15.57766      9.74442     11.53011        -0.157660      0.484731      0.634539
O       7.77488      1.82792      2.85060        -0.382726      0.228774      0.259163
O       7.78930      1.98199     16.01775         0.126220     -0.237067      1.071057
O       7.73737     13.57253      2.72380        -0.163295     -0.097911      0.286563
O       7.80875     13.54996     16.01064        -0.489877     -0.510279      0.743752
O       7.72278      1.93592      7.22640         0.084053      0.092352     -0.457412
O       7.77663     13.65933      7.17867        -0.192257      0.251800      0.175270
O       7.87069      1.98848     11.48726        -0.510597     -0.209072      0.817091
O       7.78968     13.77302     11.53021        -0.008777     -0.397312      0.529881
O       7.79462      5.90253      2.80355         0.593698     -0.672130      0.098309
O       7.82419      5.83264     15.87871        -0.007438     -0.248192      0.608124
O       7.74948      5.88453      7.32017         0.012741      0.151838     -0.267057
O       7.87708      5.74867     11.53324        -0.045996      0.691563      0.409267
O       7.77841      9.68240      2.68071         0.210477      0.187811      0.640136
O       7.85775      9.81196     15.96782        -0.634020     -0.979507      0.600015
O       7.76131      9.68346      7.21581         0.003926      0.340210     -0.117765
O       7.75738      9.77011     11.41735         0.750698     -0.398702      0.763755
O      11.60826      1.92261      2.80073        -0.045558     -0.315424      0.617605
O      11.73398      1.90841     15.96858         0.059562     -0.069029      0.251916
O      11.58333     13.51890      2.81334         0.497310      0.374307      0.210660
O      11.69444     13.60234     15.93891        -0.780326      0.426636      0.380549
O      11.63253      1.89476      7.14413         0.082964     -0.116919     -0.005839
O      11.72061     13.66412      7.16413        -0.505931     -0.257726     -0.376085
O      11.72783      1.97126     11.48418        -0.268168     -0.404785      0.547656
O      11.66703     13.72477     11.65251        -0.096608     -0.125790     -0.251902
O      11.68345      5.72181      2.77146        -0.138899      0.707272      0.360928
O      11.80809      5.79797     16.07551        -0.435984      0.027597     -0.043242
O      11.63726      5.80687      7.06157         0.235444      0.659448      0.508272
O      11.75126      5.78647     11.54059        -0.121628      0.479589      1.175610
O      11.63181      9.76483      2.55293         1.228804      0.059146      0.590637
O      11.68983      9.66676     15.82250         0.436136     -0.092354      0.517253
O      11.70190      9.72111      7.07677         0.110683      0.841782      0.360298
O      11.62154      9.81208     11.48395         0.940714     -0.420178      0.136121
O       1.84190      3.77782      2.78708         0.116410      0.814928      0.234334
O       2.07862      3.86292     15.99885        -0.453807      0.302393      0.038568
O       2.01177     15.50420      2.75348        -0.825392     -0.132077     -0.019291
O       1.79773     15.49766     16.05904         0.594849      0.640383      0.530453
O      13.54588      3.91236      2.89101         0.792687     -0.613451     -0.077137
O      13.68048      3.89454     16.03726         0.056356     -0.385352      0.120539
O      13.48480     15.53726      2.88811         0.382016     -0.286939      0.375473
O      13.67528     15.58761     15.79288         0.276374      0.178890      0.560892
O       1.88496      3.96676      7.24360         0.347367      0.090697      0.213945
O       1.95540      0.01808      7.09253        -0.101474     -0.431463      0.451528
O      13.49936      3.94887      7.03030         0.685462      0.044213      0.611287
O      13.68226     15.58788      7.13297        -0.081557     -0.485422      0.002323
O       1.93614      3.80526     11.75109         0.303327      0.526241     -0.255902
O       1.81281      0.03824     11.61042         0.880206     -0.349532     -0.352666
O      13.72439      3.83597     11.55234        -0.369150      0.330201      0.467906
O      13.62665      0.03645     11.61538        -0.376137     -0.351766     -0.203901
O       1.88203      7.86248      2.80266         0.360425     -1.282193      0.522115
O       1.99081      7.78056     16.10333         0.169058     -0.285469     -0.279377
O      13.62172      7.85541      2.64280        -0.626007     -0.598954      0.445540
O      13.80187      7.75837     15.82386        -0.605372     -0.224629      0.393158
O       1.86859      7.76520      7.39087         0.317229      0.425743     -0.540660
O      13.61748      7.79450      7.20041        -0.111919      0.501007      0.004315
O       1.85993      7.77839     11.55495         0.704356      0.126739      0.294510
O      13.70889      7.77810     11.49733        -0.595709      0.473544      0.453884
O       1.90981     11.60316      2.74813        -0.317463      0.109198      0.277663
O       1.97398     11.62073     15.96367        -0.069434      0.560229      0.127299
O      13.57099     11.64699      2.50437        -0.090658     -0.175867      0.385820
O      13.57584     11.67798     15.81544         0.640345     -0.267187      0.681552
O       1.88631     11.67179      7.19459        -0.078562      0.091867     -0.054101
O      13.66383     11.78500      7.26635         0.017384     -1.361676     -0.760164
O       1.97350     11.72007     11.62639        -0.840405      0.756215      0.558579
O      13.58082     11.73784     11.54751         0.208855     -0.396896      0.237099
O       5.89015      3.81175      2.79273        -0.130568      0.512970      0.633864
O       5.82109      3.88156     16.05462         0.122584      0.710925      0.185189
O       5.78750     15.47306      2.77606        -0.109127      0.455336      0.516128
O       5.93221     15.47132     15.93412        -0.117408      0.672277      1.183925
O       5.83029      3.95211      7.14026        -0.074962     -0.428754      0.205565
O       5.72660      0.01278      7.24234         0.237145     -0.047998     -0.081424
O       5.82835      3.77265     11.72975        -0.103222      0.663011      0.356900
O       5.80515      0.07108     11.53062         0.253575     -1.134994      0.536146
O       5.87176      7.80782      2.88166        -0.729832     -0.077172      0.754277
O       5.80602      7.76513     15.83765         0.909035     -0.158293      0.438022
O       5.79000      7.86154      7.31080        -0.235977     -0.206129     -0.005168
O       5.78821      7.81323     11.51225         0.093536      0.138121      0.995978
O       5.80164     11.65412      2.83899        -0.092992     -0.233689      0.049915
O       5.84394     11.60177     15.94374         0.131607      0.684447      0.842648
O       5.85196     11.69267      7.29669        -0.252977      0.188736     -0.106822
O       5.90941     11.73874     11.46833        -0.268858      0.493188      0.562768
O       9.76566      3.79261      2.86654        -0.888701      0.367851     -0.118853
O       9.75260      3.77989     16.12394         0.134311      1.550305      0.179997
O       9.66209     15.45651      2.80316         0.342692      0.436696      0.300671
O       9.54466     15.51761     15.92580         0.975175      0.351610      0.729480
O       9.67189      3.93847      7.11812        -0.008995     -0.820599      0.013813
O       9.67828     15.59876      7.23213         0.320605     -0.740500     -0.265114
O       9.84274      3.91711     11.46346         0.010432     -0.183944      1.203572
O       9.69299      0.00529     11.63928         0.697542      0.671678      0.146864
O       9.75869      7.71962      2.74872         0.133048      0.168668      0.005632
O       9.84388      7.74323     15.95586        -0.504514     -0.056009      0.525106
O       9.75959      7.80995      7.13586        -0.152660      0.037101      0.163770
O       9.89699      7.83756     11.46045        -0.498495      0.061283      0.453795
O       9.65935     11.67063      2.78860         0.060420     -0.510962      0.373965
O       9.73608     11.63448     15.92228         0.424137     -0.110061      0.565753
O       9.54561     11.71986      7.18519         1.133800     -0.309673      0.015631
O       9.72029     11.72823     11.47470        -0.057798      0.051040      0.191690
