  # total energy = -7889.20588049 
CRSYTAL
PRIMVEC
    15.3600000000000000    0.0000000000000000    0.0000000000000000
     0.0000000000000000   15.3600000000000000    0.0000000000000000
     0.0000000000000000    0.0000000000000000    17.440000000000000
PRESSURE
-0.750395 -0.746884 -8.13132 -0.037236 -0.015192 0.041716
PRIMCOORD
320 1
Pb       3.81928      3.82097      4.33343        -0.009191      0.072638     -0.142504
Pb       3.82842      3.82105     17.40876        -0.061039     -0.033225     -0.139122
Pb       3.82149     15.34177      4.32959        -0.082250     -0.081560     -0.056873
Pb       3.82546     15.34394     17.41229        -0.034158      0.001136     -0.252399
Pb      15.33836      3.82060      4.33298         0.053757     -0.038668     -0.053955
Pb      15.34455      3.82100     17.41572         0.063132      0.048866     -0.233763
Pb      15.34184     15.33946      4.33057        -0.077559      0.001223     -0.069537
Pb      15.33184     15.34020     17.41323         0.111149      0.012368     -0.151517
Pb       3.82051      3.82576      8.68715        -0.079647     -0.078177     -0.137308
Pb       3.82101     15.33990      8.69782        -0.020551     -0.008400     -0.186503
Pb      15.32917      3.82254      8.68874         0.054983      0.012553     -0.220396
Pb      15.33892     15.34914      8.69185        -0.030759     -0.046993     -0.290773
Pb       3.82391      3.81862     13.04726        -0.059540     -0.065874     -0.125998
Pb       3.81918     15.33560     13.04787         0.091679     -0.060318      0.021256
Pb      15.33878      3.81543     13.05230        -0.019001      0.101765     -0.118785
Pb      15.34096     15.34357     13.04353        -0.034322     -0.049564      0.101810
Pb       3.82369      7.66387      4.32724        -0.025286     -0.134998     -0.082967
Pb       3.81817      7.66174     17.41665        -0.090138     -0.056677     -0.305650
Pb      15.34789      7.66037      4.32934         0.032404      0.059048     -0.182809
Pb      15.34184      7.66813     17.40842        -0.000220     -0.075784     -0.135100
Pb       3.82734      7.65771      8.69198        -0.031919      0.073929     -0.107056
Pb      15.34056      7.65970      8.69157        -0.058895     -0.119765     -0.105458
Pb       3.82206      7.66000     13.05266        -0.241555      0.123726     -0.261461
Pb      15.34344      7.66203     13.05179         0.077441     -0.031454     -0.196532
Pb       3.81435     11.49792      4.32944         0.059249      0.091102     -0.161025
Pb       3.82869     11.49318     17.40974        -0.063777      0.071764     -0.288373
Pb      15.34693     11.50628      4.32435        -0.029818     -0.045326     -0.173863
Pb      15.33931     11.49916     17.41013         0.056177     -0.039562     -0.109882
Pb       3.81913     11.50616      8.69426         0.080971     -0.110086     -0.179873
Pb      15.34225     11.49570      8.69166        -0.050700      0.038888     -0.242881
Pb       3.82656     11.50168     13.04951        -0.089242     -0.037367     -0.176632
Pb      15.34413     11.49923     13.05414         0.157567     -0.031201     -0.139797
Pb       7.66154      3.81524      4.33362        -0.071638      0.098345     -0.154021
Pb       7.66635      3.82605     17.40487        -0.122061     -0.131830     -0.150781
Pb       7.65964     15.34493      4.32804         0.094355     -0.065719     -0.027411
Pb       7.65121     15.34121     17.40999         0.076277      0.047687     -0.315701
Pb       7.66191      3.82095      8.69275        -0.082577      0.001703     -0.210575
Pb       7.66348     15.33714      8.69054        -0.081763      0.048442     -0.129553
Pb       7.66650      3.82595     13.05817         0.186416     -0.034064     -0.155101
Pb       7.66342     15.34550     13.04951        -0.073731      0.029143     -0.045146
Pb       7.65558      7.65728      4.32781         0.047174      0.027871     -0.145975
Pb       7.66156      7.65993     17.41202        -0.004860     -0.031621     -0.039163
Pb       7.65840      7.66811      8.68859         0.038911     -0.035040     -0.088753
Pb       7.65867      7.65753     13.04941         0.215233      0.123523     -0.233948
Pb       7.65896     11.49819      4.33007         0.106608     -0.126557     -0.104108
Pb       7.65814     11.50693     17.40707         0.039651      0.017410     -0.118054
Pb       7.66487     11.50040      8.69281        -0.029135     -0.080967     -0.161875
Pb       7.66959     11.50816     13.05335        -0.116125     -0.144976     -0.212699
Pb      11.50519      3.81661      4.33232        -0.127465     -0.010826     -0.232780
Pb      11.50115      3.82146     17.41387        -0.053287      0.019953     -0.148889
Pb      11.50153     15.34449      4.32532         0.098018     -0.090469     -0.071017
Pb      11.50025     15.34055     17.40262        -0.158275      0.018101      0.048703
Pb      11.50504      3.82989      8.69107         0.033710      0.028352     -0.082516
Pb      11.50085     15.33855      8.69132         0.035266     -0.073179     -0.276525
Pb      11.50202      3.81560     13.05685        -0.150698      0.136703     -0.172020
Pb      11.49598     15.34024     13.04810        -0.006434      0.034393     -0.020290
Pb      11.50520      7.66206      4.32747        -0.206187      0.040745     -0.308649
Pb      11.49743      7.65864     17.41369         0.029335     -0.071167     -0.113040
Pb      11.50406      7.66199      8.69035        -0.044927     -0.161077      0.010767
Pb      11.49649      7.66345     13.04757        -0.061217     -0.190927     -0.143377
Pb      11.50424     11.49554      4.33368        -0.195049      0.064348     -0.204527
Pb      11.49711     11.50046     17.41035        -0.049827     -0.011565     -0.027613
Pb      11.50079     11.50043      8.69829        -0.123466      0.070714     -0.251233
Pb      11.50070     11.50103     13.04522        -0.143414     -0.076170     -0.002825
Ti       1.90689      1.90644      2.33290        -0.236199     -0.170359     -1.467851
Ti       1.90626      1.90101     15.39214         0.075598     -0.152383     -0.336115
Ti       1.89645     13.41737      2.31472        -0.114278     -0.088804     -1.341572
Ti       1.89346     13.42782     15.41105         0.052592     -0.175493     -1.239010
Ti      13.43104      1.89938      2.33296        -0.230966     -0.205897     -1.051348
Ti      13.42023      1.90718     15.40951        -0.010370     -0.114209     -1.315598
Ti      13.41760     13.40647      2.32714        -0.241770      0.055234     -1.274134
Ti      13.40946     13.42266     15.39699         0.090652     -0.139851     -1.001877
Ti       1.90412      1.88756      6.68583        -0.328596      0.253362     -1.163789
Ti       1.89948     13.41149      6.68941        -0.330711      0.077767     -1.195088
Ti      13.41845      1.90534      6.68693         0.140632     -0.315771     -1.195777
Ti      13.41297     13.40830      6.68177        -0.059611      0.288130     -1.151864
Ti       1.88451      1.88568     11.03955         0.128247      0.342121     -1.328528
Ti       1.89176     13.42151     11.03645         0.130828     -0.418756     -0.863354
Ti      13.40700      1.88732     11.05011         0.094773      0.186122     -1.352618
Ti      13.41825     13.40621     11.04780        -0.186414      0.084837     -1.125212
Ti       1.88548      5.73829      2.32857         0.120773      0.031860     -1.224700
Ti       1.89544      5.73497     15.39653        -0.213359     -0.064880     -0.968454
Ti      13.41694      5.73892      2.33066        -0.162279     -0.041587     -1.469474
Ti      13.41769      5.73315     15.39707        -0.158992      0.096661     -0.856455
Ti       1.89454      5.75495      6.67493        -0.253518     -0.514475     -1.161096
Ti      13.40651      5.75010      6.67811         0.251659     -0.307688     -0.949725
Ti       1.89635      5.73553     11.04000        -0.224341      0.102748     -0.942199
Ti      13.42947      5.72391     11.05635        -0.400312      0.093780     -1.286681
Ti       1.91088      9.58038      2.31964        -0.387396     -0.228037     -1.119769
Ti       1.89126      9.57428     15.39833         0.072412      0.021664     -1.164497
Ti      13.42102      9.57152      2.32550        -0.033950      0.038760     -1.254262
Ti      13.40073      9.57837     15.40124         0.058175     -0.262410     -0.771523
Ti       1.88968      9.57011      6.67634         0.058228     -0.012409     -1.129415
Ti      13.39717      9.58529      6.67757         0.353058     -0.119564     -1.046009
Ti       1.88819      9.58294     11.02325         0.215445     -0.274938     -0.059991
Ti      13.41484      9.57344     11.04692         0.054553     -0.378177     -1.329916
Ti       5.72979      1.87810      2.32694         0.162440      0.384941     -1.512961
Ti       5.72894      1.88995     15.39958         0.117291      0.011616     -1.166955
Ti       5.73593     13.41589      2.33612        -0.040437     -0.306411     -1.462339
Ti       5.73230     13.41173     15.39077        -0.112313      0.006969     -0.859587
Ti       5.72422      1.89619      6.67985         0.089261      0.034751     -0.967490
Ti       5.72360     13.41745      6.68255         0.038038     -0.027105     -1.301339
Ti       5.72585      1.89800     11.05538         0.244451     -0.186050     -1.357832
Ti       5.73342     13.42302     11.03932        -0.048196     -0.364261     -0.923088
Ti       5.73569      5.73027      2.31615        -0.092974     -0.126682     -1.150821
Ti       5.72424      5.74539     15.39513         0.002883     -0.421513     -0.372772
Ti       5.72524      5.75213      6.69740         0.244333     -0.175315     -1.458031
Ti       5.73177      5.73280     11.05476         0.155227      0.022072     -1.343787
Ti       5.72286      9.56977      2.32311         0.438945     -0.003346     -1.091143
Ti       5.74558      9.57071     15.39633        -0.398782      0.137066     -0.845616
Ti       5.73347      9.58256      6.67363         0.111050     -0.265339     -0.988140
Ti       5.72182      9.55670     11.04637         0.262203      0.488588     -1.219589
Ti       9.57641      1.89315      2.34606         0.156585      0.058595     -1.621888
Ti       9.58097      1.90912     15.40552        -0.356182     -0.247050     -0.867297
Ti       9.57028     13.41250      2.33316         0.145225     -0.165214     -1.510782
Ti       9.58017     13.41005     15.39697        -0.397796      0.087815     -0.755900
Ti       9.57269      1.90157      6.68458        -0.054261     -0.191887     -1.259187
Ti       9.55951     13.40749      6.68965         0.256834      0.037987     -1.186141
Ti       9.57870      1.89906     11.03800        -0.242129      0.102486     -0.771226
Ti       9.57147     13.41622     11.05231        -0.200629     -0.087793     -1.422367
Ti       9.56885      5.73173      2.31407        -0.104358      0.176088     -1.135092
Ti       9.56192      5.73961     15.40913         0.238770     -0.160159     -1.469430
Ti       9.57402      5.73386      6.67857        -0.284085     -0.054570     -1.085103
Ti       9.56460      5.73397     11.04950         0.475411      0.038042     -1.043924
Ti       9.57545      9.57801      2.32425        -0.131898     -0.175994     -1.109918
Ti       9.56604      9.56261     15.40460         0.089763      0.245253     -1.369373
Ti       9.58724      9.56972      6.69027        -0.494272      0.127178     -1.469816
Ti       9.58623      9.56577     11.02859        -0.558464     -0.105603     -0.815639
O       1.92374      1.89347      0.45197        -0.105759      0.000449      1.670881
O       1.92345      1.88632     13.57952        -0.035408      0.068212      0.423077
O       1.89260     13.42864      0.44699         0.007685     -0.049944      1.449543
O       1.89570     13.44863     13.53515        -0.031839     -0.135297      1.314710
O      13.43051      1.92340      0.48371         0.027166     -0.108200      0.991885
O      13.43996      1.90044     13.53027        -0.094236     -0.031960      1.573671
O      13.40904     13.41120      0.46450         0.078532      0.040979      1.323586
O      13.44267     13.43944     13.53907        -0.101963     -0.088324      1.194886
O       1.89214      1.92316      4.82688         0.091497     -0.155740      1.068357
O       1.89156     13.41993      4.83180         0.137949     -0.087862      1.142965
O      13.43673      1.88194      4.81207        -0.073929      0.125462      1.446714
O      13.40583     13.43179      4.82985         0.116420     -0.125540      1.074866
O       1.92185      1.91218      9.19018        -0.085583     -0.128360      1.272308
O       1.89638     13.43877      9.18606         0.065240     -0.142006      1.241091
O      13.44527      1.91436      9.16816        -0.156749     -0.074418      1.596026
O      13.40702     13.44220      9.19913         0.031553     -0.202375      1.274673
O       1.89595      5.71902      0.47796        -0.020791      0.124958      1.200631
O       1.89394      5.74671     13.54187         0.102720      0.000454      1.109694
O      13.42634      5.75038      0.45959        -0.023348     -0.085152      1.559869
O      13.43322      5.74419     13.55913        -0.022581     -0.094274      0.936014
O       1.89242      5.73761      4.82370        -0.021139      0.040664      1.124139
O      13.45753      5.73637      4.82444        -0.271657      0.087957      1.122409
O       1.89226      5.75537      9.20449         0.043811     -0.026159      0.917504
O      13.42470      5.73895      9.19206        -0.049501     -0.017958      1.179248
O       1.86854      9.59722      0.48385         0.249259     -0.135501      0.981524
O       1.90681      9.59049     13.53892        -0.037968     -0.120726      1.373903
O      13.39776      9.57268      0.47314         0.110330     -0.014706      1.098573
O      13.40799      9.57850     13.56623         0.044998      0.003054      0.930254
O       1.93163      9.56203      4.83766        -0.125480      0.154876      1.055340
O      13.43712      9.58945      4.82147        -0.140702     -0.042292      1.335235
O       1.89074      9.57437      9.22788         0.055972      0.082534      0.005846
O      13.40490      9.58415      9.17553         0.029374     -0.021053      1.451247
O       5.72856      1.87298      0.45626         0.052286      0.028778      1.568123
O       5.74311      1.89612     13.53509        -0.080865      0.048371      1.006084
O       5.71880     13.40623      0.46490         0.135216      0.079880      1.477952
O       5.74046     13.42138     13.55369        -0.036113      0.000244      0.904280
O       5.73035      1.90408      4.82753         0.018252     -0.099427      1.178063
O       5.70858     13.43629      4.81955         0.035199     -0.045547      1.288778
O       5.74990      1.90632      9.18256        -0.087274      0.005238      1.317793
O       5.74007     13.42673      9.19663        -0.056122     -0.071372      0.781794
O       5.76464      5.74659      0.45592        -0.118121     -0.016481      1.341883
O       5.75034      5.74030     13.57418        -0.103458      0.003562      0.546191
O       5.76440      5.75577      4.84409        -0.178621     -0.040406      1.206026
O       5.74101      5.74894      9.20732        -0.041812     -0.053061      1.015047
O       5.73333      9.59059      0.47759        -0.029349     -0.123935      1.103667
O       5.75493      9.59127     13.56753        -0.080740     -0.155069      0.777859
O       5.76672      9.55650      4.83047        -0.139491      0.081273      1.057828
O       5.74573      9.56953      9.19919        -0.116845      0.004735      0.902595
O       9.59548      1.89038      0.46942        -0.110029      0.020334      1.404598
O       9.58853      1.91757     13.56663        -0.011759     -0.030485      0.964175
O       9.58613     13.41939      0.45255        -0.091326      0.000586      1.527302
O       9.56015     13.41637     13.55405         0.087165     -0.036341      0.911410
O       9.57574      1.93949      4.81982         0.068415     -0.134563      1.267714
O       9.58459     13.40940      4.84275        -0.045478     -0.017896      0.989823
O       9.58664      1.90113      9.20252         0.013661      0.001789      0.934924
O       9.57863     13.43198      9.17068        -0.010784     -0.052643      1.508655
O       9.58899      5.77651      0.46381        -0.158684     -0.160644      1.027152
O       9.55578      5.71750     13.52960         0.044854      0.161939      1.532218
O       9.58983      5.74167      4.83029        -0.000730     -0.048334      1.205424
O       9.58289      5.74487      9.20344        -0.016616     -0.081322      0.797926
O       9.56801      9.57956      0.46906         0.016758     -0.021420      1.054056
O       9.58083      9.59971     13.53349        -0.056197     -0.127887      1.456604
O       9.58547      9.61394      4.81473         0.095811     -0.156961      1.484567
O       9.56465      9.58711      9.18239         0.153755     -0.005281      0.965619
O       3.81878      1.91159      2.68796        -0.020371     -0.226914      0.061398
O       3.83425      1.89656     15.76377        -0.363913      0.080878      0.041025
O       3.84164     13.41732      2.67286        -0.320988      0.054902      0.141512
O       3.82250     13.43915     15.75457        -0.088933     -0.247788      0.063006
O      15.34003      1.89783      2.68074         0.199057      0.009933      0.025733
O      15.35182      1.90056     15.74034        -0.334963     -0.137936      0.134406
O      15.35300     13.43699      2.69036        -0.185229     -0.219985     -0.006736
O      15.34338     13.41226     15.75610        -0.236838      0.107259      0.048860
O       3.81223      1.91349      7.04150         0.245691     -0.066348      0.063508
O       3.80475     13.45318      7.04159         0.297882     -0.243297      0.122458
O      15.35748      1.89144      7.04568        -0.341272      0.060601      0.075572
O      15.35260     13.41977      7.04119        -0.195846     -0.057583      0.137001
O       3.84146      1.91361     11.40325        -0.496321     -0.047161      0.067205
O       3.83238     13.42531     11.39746        -0.487771     -0.050163      0.033269
O      15.32811      1.91585     11.41121         0.201732     -0.182105     -0.015942
O      15.34275     13.40731     11.39010        -0.173601     -0.001238      0.024328
O       3.80330      5.72846      2.68355         0.278820      0.089671      0.060639
O       3.80676      5.73904     15.77651         0.121034     -0.033572     -0.046251
O      15.33911      5.75188      2.67323        -0.222600     -0.083548      0.108983
O      15.35734      5.72182     15.75230        -0.307349      0.062344      0.096457
O       3.79690      5.74364      7.03112         0.276622      0.067979      0.178117
O      15.34360      5.74255      7.04256        -0.305191      0.050168      0.074435
O       3.82550      5.75052     11.38276        -0.004282     -0.053606      0.219107
O      15.33140      5.72413     11.38947         0.171234      0.065030      0.171977
O       3.83919      9.55887      2.68367        -0.138228      0.096752      0.100062
O       3.81397      9.57316     15.75413        -0.011766     -0.019881      0.153524
O       0.01345      9.58834      2.66185        -0.444609     -0.008394      0.251855
O      15.35109      9.55012     15.77064        -0.532062      0.121598     -0.026842
O       3.81576      9.57496      7.02337         0.003287      0.037872      0.201570
O      15.34181      9.60211      7.03571        -0.259311     -0.082833      0.092709
O       3.81614      9.59261     11.39223         0.104463     -0.223245      0.170101
O       0.01501      9.57593     11.38875        -1.026211      0.028080      0.143630
O       7.68355      1.89824      2.68711        -0.369473      0.019394      0.074076
O       7.64565      1.90010     15.74952         0.316246      0.053025      0.157668
O       7.65558     13.40000      2.70062         0.046824      0.118382      0.010734
O       7.65399     13.40451     15.75916         0.042445      0.101258      0.071028
O       7.66167      1.90266      7.05008        -0.128089     -0.029179     -0.014719
O       7.66654     13.41956      7.02938        -0.470822     -0.008726      0.100429
O       7.67415      1.89151     11.40133        -0.176533      0.035699      0.048345
O       7.63105     13.44040     11.41423         0.523827     -0.138061     -0.003917
O       7.64990      5.74352      2.69040        -0.084031     -0.111690      0.005646
O       7.66470      5.72662     15.76006        -0.250550      0.132690      0.069731
O       7.65151      5.75991      7.03904         0.148854     -0.113727      0.145219
O       7.71193      5.75259     11.39797        -1.235412     -0.033566      0.180346
O       7.68300      9.58836      2.68653        -0.466563     -0.027580      0.052267
O       7.63621      9.56810     15.76232         0.313792     -0.058782      0.054229
O       7.67149      9.59984      7.04559        -0.170698     -0.121858      0.051908
O       7.67161      9.56296     11.39663        -0.091104      0.073987      0.116406
O      11.50797      1.89830      2.66963        -0.119169      0.051115      0.230319
O      11.49611      1.86935     15.77521         0.290726      0.240458     -0.045347
O      11.49911     13.40271      2.68194         0.032019      0.088234      0.089670
O      11.49098     13.42644     15.75104         0.159836     -0.082605     -0.038720
O      11.52944      1.89709      7.04290        -0.488693     -0.015997      0.016581
O      11.51486     13.42184      7.02745        -0.284944     -0.004307      0.218804
O      11.50852      1.88727     11.43974        -0.079852      0.109240     -0.145943
O      11.49703     13.40284     11.40958         0.019153      0.057541      0.028266
O      11.47525      5.74696      2.64933         0.563241      0.067210      0.274523
O      11.48192      5.72701     15.76399         0.196006      0.019419      0.008824
O      11.48674      5.71942      7.05792         0.098845      0.121592     -0.054193
O      11.49435      5.72358     11.40782         0.253927      0.061594      0.127488
O      11.50406      9.56916      2.66532         0.070275     -0.021918      0.215057
O      11.48248      9.57157     15.75050         0.228529      0.056665      0.046007
O      11.49551      9.59227      7.04469         0.147704     -0.044273      0.013687
O      11.49262      9.55360     11.40759         0.281355      0.150820     -0.014903
O       1.90794      3.82329      2.67128        -0.127954     -0.276156      0.119164
O       1.89768      3.81579     15.76340         0.100873     -0.039142     -0.027533
O       1.89289     15.31849      2.67770         0.167311      0.320417      0.064830
O       1.93232     15.32304     15.74922        -0.224496      0.218077      0.119796
O      13.41744      3.82246      2.69330         0.009960      0.131842      0.030653
O      13.43424      3.82804     15.77343        -0.137813     -0.486921     -0.016386
O      13.42311     15.33409      2.68196        -0.013399     -0.055778      0.019717
O      13.41124     15.33614     15.77377         0.122159      0.053944     -0.018216
O       1.88813      3.82372      7.03245         0.078725     -0.017250      0.144151
O       1.90189     15.34624      7.04900         0.028809     -0.112331      0.038754
O      13.40970      3.83239      7.04414         0.102917     -0.178525     -0.025650
O      13.43051     15.32938      7.04937         0.019978      0.166415      0.062756
O       1.89740      3.81650     11.37360         0.088854     -0.196023      0.265388
O       1.89884     15.34474     11.39658        -0.013944     -0.091440      0.009109
O      13.44009      3.82894     11.42102        -0.162043     -0.450717     -0.024242
O      13.40618     15.33375     11.39519         0.100447     -0.091068      0.007419
O       1.89579      7.66842      2.70523         0.081090     -0.220964     -0.026394
O       1.87519      7.66066     15.78667         0.218745     -0.179254     -0.031745
O      13.44462      7.67865      2.67932        -0.117902     -0.443695      0.175721
O      13.39679      7.63157     15.74146         0.137882      0.429215      0.132905
O       1.88522      7.66373      7.02892         0.016747      0.072386      0.187289
O      13.41173      7.64769      7.05269        -0.061921      0.316034     -0.071831
O       1.88577      7.65851     11.38782         0.123863     -0.242204      0.189954
O      13.42781      7.64552     11.41187        -0.005772      0.324010      0.056944
O       1.89989     11.48938      2.65855         0.191554      0.269603      0.259416
O       1.89596     11.48907     15.77894         0.004835      0.086066     -0.050443
O      13.42240     11.49456      2.66875         0.118008      0.040917      0.178389
O      13.43486     11.50009     15.77814        -0.133847     -0.109666     -0.135061
O       1.90477     11.50572      7.04767         0.057144     -0.180406      0.116490
O      13.41820     11.50632      7.04753         0.011383     -0.329544      0.067165
O       1.90240     11.48119     11.42461         0.005602      0.662191     -0.112187
O      13.40949     11.46474     11.42027         0.070537      0.320687     -0.051049
O       5.73397      3.80536      2.67548         0.058970      0.048865      0.069239
O       5.74888      3.80398     15.77683        -0.110589      0.378043     -0.009797
O       5.79055     15.35565      2.68814        -0.252867     -0.328023      0.066748
O       5.72563     15.35704     15.74250         0.136025     -0.482798      0.150511
O       5.75066      3.82908      7.01085        -0.107521     -0.193941      0.227470
O       5.73137     15.32850      7.03634         0.037102      0.135457      0.044937
O       5.73486      3.83116     11.38644         0.137025     -0.069916      0.179171
O       5.73597     15.33227     11.38022        -0.016368      0.223618      0.123033
O       5.74939      7.64095      2.68770        -0.051425      0.154675     -0.020611
O       5.70198      7.64843     15.75016         0.188450     -0.030011      0.087191
O       5.74682      7.66446      7.04826        -0.109704      0.007177      0.128823
O       5.74250      7.66042     11.37365        -0.005260     -0.355891      0.367453
O       5.75215     11.48833      2.67302        -0.115882      0.067284      0.148610
O       5.75066     11.50025     15.73670        -0.160152     -0.144036      0.167332
O       5.74934     11.49217      7.00250        -0.193337      0.215270      0.234171
O       5.73597     11.47507     11.37722         0.048921      0.340760      0.204351
O       9.57989      3.83655      2.67214         0.013178     -0.337439      0.107086
O       9.60007      3.83435     15.76253        -0.132447     -0.258648      0.130670
O       9.59544     15.32978      2.68737        -0.111134     -0.002826      0.120092
O       9.56844     15.35077     15.73920        -0.000816     -0.295876      0.110850
O       9.57208      3.80895      7.03286         0.028574      0.068827      0.141695
O       9.55572     15.34437      7.01925         0.198021      0.064820      0.158313
O       9.56849      3.82848     11.42769         0.128316     -0.563576     -0.078542
O       9.58152     15.33679     11.39684         0.078234     -0.052866      0.104820
O       9.56349      7.65869      2.66603         0.107996     -0.038771      0.212951
O       9.59054      7.66396     15.76858        -0.171353     -0.063321     -0.037627
O       9.58052      7.66175      7.02029         0.103750     -0.060019      0.110639
O       9.58013      7.66636     11.38428         0.100769      0.008353      0.160997
O       9.60176     11.50207      2.66929        -0.071986      0.024427      0.129611
O       9.58821     11.48996     15.76877        -0.106029     -0.033008     -0.021142
O       9.57293     11.50174      7.04165         0.127814     -0.113469      0.159000
O       9.58724     11.51354     11.39965        -0.047932     -0.106440      0.008462
