  # total energy = -7875.07095309 
CRSYTAL
PRIMVEC
    15.010000000000000    0.0000000000000000    0.0000000000000000
     0.0000000000000000   15.010000000000000    0.0000000000000000
     0.0000000000000000    0.0000000000000000    16.400000000000000
PRESSURE
20.2952 20.2982 15.4626 -0.043071 -0.043081 0.062535
PRIMCOORD
320 1
Pb       3.73337      3.73337      4.07174         0.025111      0.025320      0.634869
Pb       3.73410      3.73409     16.37353         0.012796      0.013173      0.587551
Pb       3.73337     14.99087      4.07174         0.025077      0.025416      0.634817
Pb       3.73409     14.99160     16.37353         0.012829      0.013063      0.587625
Pb      14.99087      3.73337      4.07174         0.025130      0.025413      0.634823
Pb      14.99160      3.73410     16.37353         0.012757      0.013129      0.587626
Pb      14.99087     14.99087      4.07174         0.025209      0.025372      0.634797
Pb      14.99160     14.99159     16.37352         0.012710      0.013075      0.587653
Pb       3.73410      3.73409      8.17353         0.012807      0.013188      0.587583
Pb       3.73409     14.99160      8.17353         0.012821      0.013049      0.587618
Pb      14.99159      3.73410      8.17353         0.012758      0.013099      0.587597
Pb      14.99160     14.99159      8.17352         0.012737      0.013118      0.587651
Pb       3.73337      3.73337     12.27174         0.025133      0.025328      0.634856
Pb       3.73337     14.99087     12.27174         0.025105      0.025419      0.634810
Pb      14.99087      3.73337     12.27174         0.025129      0.025402      0.634815
Pb      14.99087     14.99087     12.27174         0.025183      0.025357      0.634792
Pb       3.73337      7.48587      4.07174         0.025188      0.025427      0.634825
Pb       3.73410      7.48660     16.37353         0.012740      0.013089      0.587605
Pb      14.99087      7.48587      4.07174         0.025091      0.025299      0.634844
Pb      14.99159      7.48659     16.37353         0.012813      0.013159      0.587606
Pb       3.73410      7.48660      8.17353         0.012738      0.013066      0.587606
Pb      14.99159      7.48659      8.17353         0.012829      0.013161      0.587595
Pb       3.73337      7.48587     12.27174         0.025168      0.025398      0.634813
Pb      14.99087      7.48587     12.27174         0.025118      0.025318      0.634844
Pb       3.73337     11.23837      4.07174         0.025108      0.025330      0.634820
Pb       3.73410     11.23909     16.37353         0.012816      0.013156      0.587633
Pb      14.99087     11.23837      4.07174         0.025193      0.025429      0.634798
Pb      14.99160     11.23910     16.37352         0.012760      0.013085      0.587661
Pb       3.73410     11.23909      8.17353         0.012822      0.013180      0.587617
Pb      14.99160     11.23910      8.17352         0.012742      0.013078      0.587653
Pb       3.73337     11.23837     12.27174         0.025104      0.025348      0.634827
Pb      14.99087     11.23837     12.27174         0.025198      0.025444      0.634787
Pb       7.48587      3.73337      4.07174         0.025117      0.025346      0.634821
Pb       7.48659      3.73409     16.37353         0.012842      0.013135      0.587635
Pb       7.48587     14.99087      4.07174         0.025195      0.025442      0.634754
Pb       7.48660     14.99160     16.37352         0.012755      0.013057      0.587691
Pb       7.48659      3.73409      8.17353         0.012823      0.013143      0.587609
Pb       7.48660     14.99160      8.17352         0.012730      0.013067      0.587691
Pb       7.48587      3.73337     12.27174         0.025088      0.025333      0.634828
Pb       7.48587     14.99087     12.27174         0.025156      0.025439      0.634760
Pb       7.48587      7.48587      4.07174         0.025079      0.025365      0.634811
Pb       7.48659      7.48660     16.37353         0.012831      0.013132      0.587653
Pb       7.48659      7.48660      8.17353         0.012832      0.013131      0.587639
Pb       7.48587      7.48587     12.27174         0.025097      0.025402      0.634801
Pb       7.48587     11.23837      4.07174         0.025141      0.025368      0.634792
Pb       7.48660     11.23909     16.37352         0.012780      0.013135      0.587690
Pb       7.48660     11.23909      8.17352         0.012782      0.013121      0.587696
Pb       7.48587     11.23837     12.27174         0.025137      0.025345      0.634764
Pb      11.23837      3.73337      4.07174         0.025170      0.025418      0.634777
Pb      11.23910      3.73410     16.37352         0.012766      0.013059      0.587668
Pb      11.23837     14.99087      4.07174         0.025083      0.025333      0.634771
Pb      11.23909     14.99159     16.37352         0.012820      0.013158      0.587695
Pb      11.23910      3.73410      8.17352         0.012772      0.013069      0.587663
Pb      11.23909     14.99159      8.17352         0.012836      0.013143      0.587699
Pb      11.23837      3.73337     12.27174         0.025179      0.025430      0.634758
Pb      11.23837     14.99087     12.27174         0.025119      0.025354      0.634783
Pb      11.23837      7.48587      4.07174         0.025183      0.025339      0.634783
Pb      11.23910      7.48659     16.37352         0.012762      0.013156      0.587675
Pb      11.23910      7.48659      8.17352         0.012743      0.013152      0.587680
Pb      11.23837      7.48587     12.27174         0.025161      0.025331      0.634774
Pb      11.23837     11.23836      4.07174         0.025140      0.025452      0.634751
Pb      11.23910     11.23910     16.37352         0.012753      0.013053      0.587736
Pb      11.23910     11.23910      8.17352         0.012768      0.013064      0.587709
Pb      11.23837     11.23836     12.27174         0.025146      0.025431      0.634740
Ti       1.85276      1.85284      2.18829         0.135511      0.132450      0.118949
Ti       1.85289      1.85304     14.48835         0.137531      0.135386      0.168791
Ti       1.85276     13.11034      2.18830         0.135522      0.132472      0.118798
Ti       1.85289     13.11054     14.48835         0.137477      0.135345      0.168838
Ti      13.11026      1.85284      2.18830         0.135479      0.132454      0.118494
Ti      13.11039      1.85304     14.48834         0.137435      0.135378      0.169078
Ti      13.11026     13.11033      2.18830         0.135504      0.132502      0.118592
Ti      13.11039     13.11054     14.48834         0.137519      0.135414      0.169050
Ti       1.85289      1.85304      6.28835         0.137485      0.135342      0.168754
Ti       1.85289     13.11054      6.28835         0.137500      0.135387      0.168990
Ti      13.11039      1.85304      6.28834         0.137497      0.135425      0.169169
Ti      13.11039     13.11054      6.28834         0.137450      0.135378      0.169047
Ti       1.85276      1.85283     10.38829         0.135510      0.132432      0.118864
Ti       1.85276     13.11034     10.38830         0.135511      0.132461      0.118792
Ti      13.11026      1.85284     10.38830         0.135500      0.132459      0.118461
Ti      13.11026     13.11034     10.38830         0.135513      0.132468      0.118555
Ti       1.85276      5.60534      2.18830         0.135479      0.132423      0.118727
Ti       1.85289      5.60554     14.48835         0.137484      0.135431      0.168859
Ti      13.11026      5.60534      2.18830         0.135554      0.132431      0.118740
Ti      13.11039      5.60554     14.48835         0.137510      0.135447      0.168990
Ti       1.85289      5.60554      6.28835         0.137456      0.135411      0.169031
Ti      13.11039      5.60554      6.28835         0.137479      0.135401      0.168786
Ti       1.85276      5.60534     10.38830         0.135532      0.132472      0.118627
Ti      13.11026      5.60534     10.38829         0.135467      0.132377      0.118812
Ti       1.85276      9.35784      2.18830         0.135535      0.132399      0.118622
Ti       1.85289      9.35804     14.48835         0.137515      0.135446      0.169002
Ti      13.11026      9.35784      2.18830         0.135482      0.132445      0.118519
Ti      13.11039      9.35804     14.48834         0.137484      0.135364      0.169124
Ti       1.85289      9.35804      6.28835         0.137504      0.135442      0.168880
Ti      13.11039      9.35804      6.28834         0.137474      0.135394      0.169193
Ti       1.85276      9.35784     10.38830         0.135498      0.132420      0.118833
Ti      13.11026      9.35784     10.38830         0.135513      0.132486      0.118460
Ti       5.60526      1.85284      2.18830         0.135500      0.132417      0.118726
Ti       5.60539      1.85304     14.48835         0.137561      0.135417      0.168787
Ti       5.60526     13.11034      2.18830         0.135493      0.132457      0.118502
Ti       5.60539     13.11054     14.48834         0.137471      0.135368      0.169159
Ti       5.60539      1.85304      6.28835         0.137544      0.135409      0.168800
Ti       5.60539     13.11054      6.28834         0.137470      0.135369      0.169169
Ti       5.60526      1.85284     10.38830         0.135475      0.132426      0.118802
Ti       5.60526     13.11034     10.38830         0.135489      0.132484      0.118433
Ti       5.60526      5.60534      2.18830         0.135504      0.132453      0.118765
Ti       5.60539      5.60554     14.48835         0.137477      0.135429      0.168853
Ti       5.60539      5.60554      6.28835         0.137524      0.135443      0.168865
Ti       5.60526      5.60534     10.38830         0.135434      0.132405      0.118709
Ti       5.60526      9.35784      2.18830         0.135443      0.132465      0.118750
Ti       5.60539      9.35804     14.48835         0.137530      0.135418      0.168816
Ti       5.60539      9.35804      6.28834         0.137485      0.135363      0.168921
Ti       5.60526      9.35784     10.38830         0.135500      0.132451      0.118741
Ti       9.35776      1.85283      2.18830         0.135511      0.132479      0.118594
Ti       9.35789      1.85304     14.48835         0.137515      0.135364      0.169043
Ti       9.35776     13.11034      2.18830         0.135485      0.132451      0.118587
Ti       9.35789     13.11054     14.48834         0.137523      0.135380      0.168938
Ti       9.35789      1.85304      6.28835         0.137514      0.135372      0.169101
Ti       9.35789     13.11054      6.28835         0.137602      0.135361      0.168983
Ti       9.35776      1.85283     10.38830         0.135504      0.132472      0.118618
Ti       9.35776     13.11034     10.38830         0.135469      0.132432      0.118704
Ti       9.35776      5.60534      2.18830         0.135453      0.132421      0.118575
Ti       9.35789      5.60554     14.48834         0.137534      0.135396      0.168997
Ti       9.35789      5.60554      6.28834         0.137539      0.135418      0.169067
Ti       9.35776      5.60534     10.38830         0.135526      0.132461      0.118626
Ti       9.35776      9.35784      2.18830         0.135536      0.132457      0.118556
Ti       9.35789      9.35804     14.48834         0.137480      0.135401      0.169100
Ti       9.35789      9.35804      6.28834         0.137506      0.135417      0.169227
Ti       9.35776      9.35784     10.38830         0.135501      0.132421      0.118559
O       1.85906      1.85904      0.43386        -0.004186     -0.004302     -0.893708
O       1.86001      1.85999     12.73476        -0.010734     -0.010805     -0.938435
O       1.85906     13.11654      0.43386        -0.004195     -0.004300     -0.893547
O       1.86001     13.11749     12.73477        -0.010725     -0.010812     -0.938566
O      13.11656      1.85904      0.43386        -0.004184     -0.004297     -0.893469
O      13.11751      1.85999     12.73476        -0.010732     -0.010815     -0.938627
O      13.11656     13.11654      0.43386        -0.004194     -0.004302     -0.893508
O      13.11751     13.11749     12.73477        -0.010729     -0.010806     -0.938660
O       1.86001      1.85999      4.53476        -0.010730     -0.010810     -0.938398
O       1.86001     13.11749      4.53477        -0.010730     -0.010816     -0.938602
O      13.11751      1.85999      4.53477        -0.010733     -0.010810     -0.938682
O      13.11751     13.11749      4.53477        -0.010728     -0.010807     -0.938661
O       1.85906      1.85904      8.63386        -0.004184     -0.004301     -0.893692
O       1.85906     13.11654      8.63386        -0.004195     -0.004297     -0.893565
O      13.11656      1.85904      8.63386        -0.004186     -0.004297     -0.893492
O      13.11656     13.11654      8.63386        -0.004190     -0.004304     -0.893522
O       1.85906      5.61154      0.43386        -0.004198     -0.004308     -0.893644
O       1.86001      5.61249     12.73476        -0.010721     -0.010801     -0.938523
O      13.11656      5.61154      0.43386        -0.004188     -0.004308     -0.893627
O      13.11751      5.61249     12.73476        -0.010729     -0.010809     -0.938451
O       1.86001      5.61249      4.53476        -0.010727     -0.010798     -0.938486
O      13.11751      5.61249      4.53476        -0.010734     -0.010809     -0.938519
O       1.85906      5.61154      8.63386        -0.004197     -0.004311     -0.893588
O      13.11656      5.61154      8.63386        -0.004186     -0.004303     -0.893740
O       1.85906      9.36404      0.43386        -0.004183     -0.004307     -0.893548
O       1.86001      9.36499     12.73476        -0.010736     -0.010810     -0.938532
O      13.11656      9.36404      0.43386        -0.004184     -0.004313     -0.893387
O      13.11751      9.36499     12.73477        -0.010736     -0.010797     -0.938706
O       1.86001      9.36499      4.53476        -0.010734     -0.010803     -0.938605
O      13.11751      9.36499      4.53477        -0.010734     -0.010799     -0.938708
O       1.85906      9.36404      8.63386        -0.004187     -0.004309     -0.893594
O      13.11656      9.36404      8.63386        -0.004186     -0.004316     -0.893414
O       5.61156      1.85904      0.43386        -0.004203     -0.004298     -0.893611
O       5.61251      1.85999     12.73476        -0.010726     -0.010812     -0.938399
O       5.61156     13.11654      0.43386        -0.004195     -0.004305     -0.893471
O       5.61251     13.11749     12.73476        -0.010724     -0.010805     -0.938650
O       5.61251      1.85999      4.53476        -0.010724     -0.010807     -0.938551
O       5.61251     13.11749      4.53477        -0.010724     -0.010801     -0.938667
O       5.61156      1.85904      8.63386        -0.004199     -0.004298     -0.893655
O       5.61156     13.11654      8.63386        -0.004196     -0.004306     -0.893502
O       5.61156      5.61154      0.43386        -0.004194     -0.004307     -0.893595
O       5.61251      5.61249     12.73476        -0.010729     -0.010809     -0.938553
O       5.61251      5.61249      4.53476        -0.010721     -0.010814     -0.938534
O       5.61156      5.61154      8.63386        -0.004197     -0.004306     -0.893621
O       5.61156      9.36404      0.43386        -0.004205     -0.004310     -0.893648
O       5.61251      9.36499     12.73476        -0.010722     -0.010801     -0.938397
O       5.61251      9.36499      4.53476        -0.010721     -0.010803     -0.938469
O       5.61156      9.36404      8.63386        -0.004194     -0.004307     -0.893695
O       9.36406      1.85904      0.43386        -0.004197     -0.004304     -0.893504
O       9.36501      1.85999     12.73477        -0.010721     -0.010808     -0.938585
O       9.36406     13.11654      0.43386        -0.004187     -0.004298     -0.893587
O       9.36501     13.11749     12.73477        -0.010733     -0.010814     -0.938594
O       9.36501      1.85999      4.53476        -0.010725     -0.010804     -0.938510
O       9.36501     13.11749      4.53477        -0.010728     -0.010817     -0.938588
O       9.36406      1.85904      8.63386        -0.004200     -0.004301     -0.893568
O       9.36406     13.11654      8.63386        -0.004191     -0.004298     -0.893535
O       9.36406      5.61154      0.43386        -0.004188     -0.004309     -0.893614
O       9.36501      5.61249     12.73476        -0.010735     -0.010798     -0.938581
O       9.36501      5.61249      4.53476        -0.010731     -0.010797     -0.938558
O       9.36406      5.61154      8.63386        -0.004190     -0.004312     -0.893523
O       9.36406      9.36404      0.43386        -0.004200     -0.004306     -0.893354
O       9.36501      9.36499     12.73477        -0.010719     -0.010806     -0.938774
O       9.36501      9.36499      4.53477        -0.010723     -0.010805     -0.938776
O       9.36406      9.36404      8.63386        -0.004204     -0.004305     -0.893423
O       3.73222      1.85883      2.51559         0.061777     -0.005298      0.068363
O       3.73254      1.85936     14.81697         0.060971     -0.007613      0.060324
O       3.73222     13.11633      2.51559         0.061761     -0.005300      0.068394
O       3.73254     13.11686     14.81697         0.061037     -0.007614      0.060314
O      14.98972      1.85883      2.51559         0.061842     -0.005295      0.068383
O      14.99004      1.85936     14.81697         0.060994     -0.007619      0.060319
O      14.98972     13.11633      2.51559         0.061782     -0.005299      0.068390
O      14.99004     13.11686     14.81697         0.060990     -0.007612      0.060318
O       3.73254      1.85936      6.61697         0.060976     -0.007616      0.060341
O       3.73254     13.11686      6.61697         0.061026     -0.007615      0.060299
O      14.99004      1.85936      6.61697         0.060976     -0.007619      0.060303
O      14.99004     13.11686      6.61697         0.061011     -0.007620      0.060316
O       3.73222      1.85883     10.71559         0.061806     -0.005296      0.068355
O       3.73222     13.11633     10.71559         0.061742     -0.005299      0.068397
O      14.98972      1.85883     10.71559         0.061818     -0.005294      0.068384
O      14.98972     13.11633     10.71559         0.061811     -0.005300      0.068388
O       3.73222      5.61133      2.51559         0.061848     -0.005296      0.068372
O       3.73254      5.61186     14.81697         0.060983     -0.007627      0.060324
O      14.98972      5.61133      2.51559         0.061755     -0.005296      0.068367
O      14.99004      5.61186     14.81697         0.060984     -0.007625      0.060329
O       3.73254      5.61186      6.61697         0.060947     -0.007629      0.060320
O      14.99004      5.61186      6.61697         0.061083     -0.007619      0.060316
O       3.73222      5.61133     10.71559         0.061810     -0.005293      0.068378
O      14.98972      5.61133     10.71559         0.061781     -0.005291      0.068385
O       3.73222      9.36383      2.51559         0.061757     -0.005289      0.068381
O       3.73254      9.36436     14.81697         0.061003     -0.007626      0.060318
O      14.98972      9.36383      2.51559         0.061783     -0.005292      0.068404
O      14.99004      9.36436     14.81697         0.060989     -0.007624      0.060301
O       3.73254      9.36436      6.61697         0.061024     -0.007622      0.060322
O      14.99004      9.36436      6.61697         0.060941     -0.007623      0.060305
O       3.73222      9.36383     10.71559         0.061769     -0.005295      0.068372
O      14.98972      9.36383     10.71559         0.061810     -0.005298      0.068390
O       7.48472      1.85883      2.51559         0.061794     -0.005297      0.068383
O       7.48504      1.85936     14.81697         0.060976     -0.007617      0.060313
O       7.48472     13.11633      2.51559         0.061777     -0.005296      0.068417
O       7.48504     13.11686     14.81697         0.060970     -0.007619      0.060287
O       7.48504      1.85936      6.61697         0.061018     -0.007609      0.060307
O       7.48504     13.11686      6.61697         0.060932     -0.007618      0.060293
O       7.48472      1.85883     10.71559         0.061787     -0.005303      0.068382
O       7.48472     13.11633     10.71559         0.061856     -0.005297      0.068401
O       7.48472      5.61133      2.51559         0.061745     -0.005291      0.068385
O       7.48504      5.61186     14.81697         0.060972     -0.007620      0.060311
O       7.48504      5.61186      6.61697         0.061001     -0.007630      0.060310
O       7.48472      5.61133     10.71559         0.061810     -0.005295      0.068390
O       7.48472      9.36383      2.51559         0.061899     -0.005297      0.068397
O       7.48504      9.36436     14.81697         0.060914     -0.007624      0.060306
O       7.48504      9.36436      6.61697         0.060949     -0.007624      0.060296
O       7.48472      9.36383     10.71559         0.061828     -0.005288      0.068383
O      11.23722      1.85883      2.51559         0.061768     -0.005297      0.068403
O      11.23754      1.85936     14.81697         0.061000     -0.007621      0.060291
O      11.23722     13.11633      2.51559         0.061867     -0.005299      0.068405
O      11.23754     13.11686     14.81697         0.060947     -0.007616      0.060310
O      11.23754      1.85936      6.61697         0.060968     -0.007616      0.060280
O      11.23754     13.11686      6.61697         0.060985     -0.007621      0.060296
O      11.23722      1.85883     10.71559         0.061768     -0.005297      0.068398
O      11.23722     13.11633     10.71559         0.061782     -0.005296      0.068397
O      11.23722      5.61133      2.51559         0.061830     -0.005294      0.068401
O      11.23754      5.61186     14.81697         0.060999     -0.007621      0.060305
O      11.23754      5.61186      6.61697         0.060919     -0.007620      0.060314
O      11.23722      5.61133     10.71559         0.061779     -0.005295      0.068379
O      11.23722      9.36383      2.51559         0.061756     -0.005295      0.068397
O      11.23754      9.36436     14.81697         0.061027     -0.007620      0.060284
O      11.23754      9.36436      6.61697         0.061024     -0.007621      0.060281
O      11.23722      9.36383     10.71559         0.061789     -0.005295      0.068408
O       1.85887      3.73214      2.51559        -0.006155      0.065614      0.068252
O       1.85941      3.73253     14.81696        -0.007469      0.062818      0.060340
O       1.85887     14.98963      2.51559        -0.006154      0.065687      0.068257
O       1.85941     14.99003     14.81696        -0.007473      0.062901      0.060343
O      13.11637      3.73213      2.51559        -0.006160      0.065711      0.068274
O      13.11691      3.73253     14.81696        -0.007469      0.062829      0.060311
O      13.11637     14.98964      2.51559        -0.006161      0.065636      0.068299
O      13.11691     14.99003     14.81696        -0.007469      0.062873      0.060303
O       1.85941      3.73253      6.61696        -0.007472      0.062884      0.060335
O       1.85941     14.99003      6.61696        -0.007473      0.062861      0.060336
O      13.11691      3.73253      6.61696        -0.007470      0.062778      0.060319
O      13.11691     14.99003      6.61696        -0.007466      0.062859      0.060308
O       1.85887      3.73214     10.71559        -0.006157      0.065651      0.068260
O       1.85887     14.98963     10.71559        -0.006154      0.065650      0.068254
O      13.11637      3.73213     10.71559        -0.006160      0.065689      0.068272
O      13.11637     14.98964     10.71559        -0.006163      0.065665      0.068299
O       1.85887      7.48464      2.51559        -0.006156      0.065731      0.068278
O       1.85941      7.48503     14.81696        -0.007473      0.062818      0.060327
O      13.11637      7.48464      2.51559        -0.006160      0.065718      0.068277
O      13.11691      7.48503     14.81696        -0.007471      0.062797      0.060311
O       1.85941      7.48503      6.61696        -0.007481      0.062741      0.060319
O      13.11691      7.48503      6.61696        -0.007466      0.062862      0.060322
O       1.85887      7.48463     10.71559        -0.006157      0.065745      0.068264
O      13.11637      7.48464     10.71559        -0.006160      0.065726      0.068272
O       1.85887     11.23714      2.51559        -0.006156      0.065712      0.068282
O       1.85941     11.23753     14.81696        -0.007473      0.062781      0.060327
O      13.11637     11.23714      2.51559        -0.006164      0.065670      0.068298
O      13.11691     11.23753     14.81696        -0.007471      0.062820      0.060307
O       1.85941     11.23753      6.61696        -0.007480      0.062833      0.060323
O      13.11691     11.23753      6.61696        -0.007466      0.062810      0.060295
O       1.85887     11.23714     10.71559        -0.006155      0.065701      0.068264
O      13.11637     11.23714     10.71559        -0.006164      0.065656      0.068301
O       5.61137      3.73214      2.51559        -0.006151      0.065728      0.068263
O       5.61191      3.73253     14.81696        -0.007489      0.062805      0.060338
O       5.61137     14.98963      2.51559        -0.006153      0.065687      0.068284
O       5.61191     14.99003     14.81696        -0.007485      0.062834      0.060314
O       5.61191      3.73253      6.61696        -0.007481      0.062813      0.060341
O       5.61191     14.99003      6.61696        -0.007483      0.062817      0.060316
O       5.61137      3.73214     10.71559        -0.006150      0.065686      0.068257
O       5.61137     14.98963     10.71559        -0.006148      0.065712      0.068278
O       5.61137      7.48463      2.51559        -0.006151      0.065617      0.068267
O       5.61191      7.48503     14.81696        -0.007482      0.062847      0.060326
O       5.61191      7.48503      6.61696        -0.007477      0.062842      0.060327
O       5.61137      7.48464     10.71559        -0.006153      0.065669      0.068263
O       5.61137     11.23714      2.51559        -0.006153      0.065696      0.068292
O       5.61191     11.23753     14.81696        -0.007479      0.062824      0.060299
O       5.61191     11.23753      6.61696        -0.007479      0.062846      0.060295
O       5.61137     11.23714     10.71559        -0.006148      0.065658      0.068288
O       9.36387      3.73214      2.51559        -0.006154      0.065641      0.068282
O       9.36441      3.73253     14.81696        -0.007480      0.062844      0.060319
O       9.36387     14.98963      2.51559        -0.006153      0.065711      0.068288
O       9.36441     14.99003     14.81696        -0.007475      0.062833      0.060313
O       9.36441      3.73253      6.61696        -0.007483      0.062844      0.060303
O       9.36441     14.99003      6.61696        -0.007480      0.062900      0.060310
O       9.36387      3.73214     10.71559        -0.006153      0.065675      0.068281
O       9.36387     14.98963     10.71559        -0.006156      0.065653      0.068283
O       9.36387      7.48464      2.51559        -0.006154      0.065792      0.068290
O       9.36441      7.48503     14.81696        -0.007475      0.062771      0.060303
O       9.36441      7.48503      6.61696        -0.007479      0.062765      0.060299
O       9.36387      7.48464     10.71559        -0.006154      0.065716      0.068292
O       9.36387     11.23714      2.51559        -0.006152      0.065592      0.068299
O       9.36441     11.23753     14.81696        -0.007475      0.062875      0.060304
O       9.36441     11.23753      6.61696        -0.007474      0.062822      0.060296
O       9.36387     11.23713     10.71559        -0.006158      0.065693      0.068289
