  # total energy = -7879.11601642 
CRSYTAL
PRIMVEC
    15.2000000000000000    0.0000000000000000    0.0000000000000000
     0.0000000000000000   15.2000000000000000    0.0000000000000000
     0.0000000000000000    0.0000000000000000    17.000000000000000
PRESSURE
7.9048 7.62556 3.34684 -0.114628 -0.039505 0.051098
PRIMCOORD
320 1
Pb       3.67406      3.94673      4.38115         0.109691     -0.383595     -0.693680
Pb       3.78126      3.87886      0.07249        -0.054571     -0.135329     -0.580467
Pb       3.70959      0.10962      4.36620        -0.107018      0.240822     -0.653416
Pb       4.00555     15.18482      0.07114        -0.652121      0.043001     -0.082441
Pb      15.15829      4.08085      4.35134         0.307016     -1.122879     -0.788488
Pb      15.15595      3.79099     16.90698         0.357231     -0.263081      0.207834
Pb       0.05913      0.15226      4.21444        -0.649695      0.166009     -0.152892
Pb       0.12842     15.17399     16.88450        -0.645364      0.158068      0.041752
Pb       3.91745      3.61914      8.51830        -0.328988      0.655227     -0.753616
Pb       3.80383     15.11973      8.42531        -0.060725      0.372772     -0.046864
Pb      15.10866      3.75963      8.44338         0.071048     -0.250582      0.533464
Pb       0.00581     15.16043      8.70422        -0.609193      0.274524     -0.778168
Pb       3.79991      3.75345     12.74169         0.103579      0.058770     -0.085546
Pb       3.88167     15.04004     12.75527        -0.146637      0.358543      0.127724
Pb       0.17065      3.57606     12.82107        -0.252754      0.214680     -0.216765
Pb       0.04461     15.02845     12.68882        -0.074024      0.707671      0.331387
Pb       3.70105      7.65343      4.34480        -0.300457     -0.060220     -0.263080
Pb       3.86272      7.71676      0.25405         0.158544     -0.555792     -0.918161
Pb      15.12886      7.66757      4.17933         0.618340      0.254567     -0.020382
Pb       0.14731      7.61815     16.97045        -0.600526     -0.438385     -0.489681
Pb       3.75372      7.49902      8.47384         0.324235      0.053876     -0.233612
Pb      15.00811      7.56540      8.51652         0.405801     -0.504824     -0.138966
Pb       3.70186      7.52247     12.75288         0.268596     -0.367701     -0.331843
Pb      15.10679      7.43062     12.76018         0.386516      0.275416     -0.215769
Pb       3.56990     11.66825      4.32286         0.256453     -1.248230      0.199592
Pb       3.94887     11.42514      0.00785        -0.207102     -0.079793      0.138528
Pb      14.94347     11.59125      4.34068         0.487585     -0.774223     -0.388547
Pb       0.05479     11.45089     16.89564        -0.325786      0.127195     -0.001782
Pb       3.75833     11.45030      8.40600         0.253788     -0.714888      0.206148
Pb      15.03796     11.26163      8.64814         0.072697      0.575780     -0.356146
Pb       3.66026     11.21905     12.80700         0.289817      0.575525     -0.284459
Pb      15.11647     11.30041     12.57960         0.170085      0.038704      0.444416
Pb       7.60530      3.78241      4.12230         0.159298     -0.192831      0.024830
Pb       7.67516      3.87456      0.07775        -0.429114     -0.280866     -0.342896
Pb       7.52064      0.01333      4.21488         0.707711     -0.116581     -0.210765
Pb       7.57117     15.11470      0.09897         0.185509      0.167783     -0.650511
Pb       7.80394      3.79258      8.20422        -0.652170      0.282001      0.618918
Pb       7.50420     15.13514      8.44309         0.851350     -0.165497     -0.089879
Pb       7.45286      3.69074     12.66085         0.276822      0.520420      0.162551
Pb       7.59322      0.14004     12.68185        -0.145657     -0.442639      0.185238
Pb       7.64505      7.56970      4.40059        -0.166266      0.282471     -0.895885
Pb       7.53881      7.55806      0.00327        -0.010553      0.419893     -0.106162
Pb       7.62227      7.60020      8.44085         0.052701      0.090944      0.247561
Pb       7.60012      7.53047     12.75969        -0.418830      0.019398     -0.590350
Pb       7.52581     11.30924      4.12005         0.507063      0.425448      0.305363
Pb       7.63844     11.42471      0.07213        -0.010023     -0.183166      0.055976
Pb       7.44116     11.44300      8.30489         0.634209     -0.402020      0.701809
Pb       7.49989     11.34619     12.70522         0.229617     -0.238851      0.021378
Pb      11.48883      3.88013      4.03883        -0.483473     -0.731215      0.084113
Pb      11.50285      3.84726     16.99068        -0.603177     -0.190375      0.082740
Pb      11.46859      0.01349      4.23756         0.083086      0.197138     -0.439994
Pb      11.37939     15.09153     16.94072         0.250941      0.244970     -0.157382
Pb      11.39982      3.65591      8.40871         0.146684      0.296474      0.008728
Pb      11.21358     15.11435      8.67356         0.522026      0.308327     -0.732362
Pb      11.39520      3.73363     12.72141        -0.266060      0.106863      0.095673
Pb      11.29031      0.07639     12.87026         0.246806      0.070801     -0.422419
Pb      11.53848      7.55663      4.11534        -0.916966      0.675626     -0.056604
Pb      11.35379      7.59213     16.95364         0.127139     -0.542051     -0.599928
Pb      11.40493      7.60179      8.37371        -0.678589     -0.017028      0.738998
Pb      11.27658      7.48446     12.64500         0.076603      0.002273      0.509277
Pb      11.46056     11.49257      4.19773        -0.139656     -0.441558     -0.139297
Pb      11.46993     11.27623     16.94400        -0.337466      0.525194      0.116351
Pb      11.23823     11.45975      8.65873         0.102375     -0.219675     -0.581525
Pb      11.28962     11.12549     12.91777         0.124348      0.564714     -0.598119
Ti       1.85855      1.92497      2.13144        -0.350630      0.331717      0.883430
Ti       1.96336      1.81898     15.03807        -0.225093      0.717840      0.007494
Ti       1.76229     13.36551      2.30949         1.113789     -1.031167      0.164239
Ti       1.98702     13.25736     14.97693        -0.475080      0.137203     -1.673912
Ti      13.31257      1.88044      2.10802         0.225004     -0.438016     -0.100183
Ti      13.27396      1.87449     14.98726         0.876944     -0.742776      1.327267
Ti      13.33389     13.32475      2.07150        -0.816865      0.116982     -0.060655
Ti      13.30134     13.27241     14.84864         0.532548      0.391869      0.489502
Ti       1.82239      1.92088      6.45374        -0.244827     -0.113237      0.735018
Ti       1.82478     13.34318      6.57905        -0.318247     -0.820622     -0.304489
Ti      13.27975      1.88386      6.37963         0.144807     -0.677044      0.267350
Ti      13.31706     13.32077      6.67235        -0.799975      0.692181     -0.336268
Ti       1.96688      1.81397     10.69668        -0.767953      1.246892      0.786800
Ti       1.95094     13.27399     10.71850         0.629442      0.077019      1.300167
Ti      13.29848      1.87466     10.79624         0.292608     -0.027733      0.553630
Ti      13.22866     13.22729     10.79986         0.149143      0.443351     -0.143489
Ti       1.88892      5.73581      2.18918         0.143474     -0.810098      0.599340
Ti       1.88750      5.66746     15.01335        -0.000497     -0.181337      0.990310
Ti      13.31971      5.66245      2.11015        -0.628905      0.780593     -1.310210
Ti      13.25753      5.58617     14.94298        -0.345211      2.070828      1.316864
Ti       1.87343      5.63751      6.60469         0.013318      0.414124      0.049168
Ti      13.19696      5.70277      6.45223         1.102567     -0.515814      0.852703
Ti       1.88031      5.60163     10.64124         0.547694     -0.292177      0.846970
Ti      13.28578      5.62248     10.70547        -0.107452     -0.219599     -1.173561
Ti       1.89395      9.56151      2.22262        -0.829149     -0.032296      0.676705
Ti       1.88339      9.48610     14.97381         0.402617     -0.972118     -0.706644
Ti      13.28885      9.47078      2.09077        -0.025067      0.515591      0.428233
Ti      13.30076      9.45468     14.97570        -0.370629     -1.454280      0.041863
Ti       1.82442      9.48697      6.56756         0.703484     -0.108842     -1.404066
Ti      13.25721      9.54289      6.46256        -0.565416     -0.541037      0.825361
Ti       1.84735      9.43287     10.66722         0.002761     -0.382793      2.166116
Ti      13.13274      9.39198     10.72378         0.365661      0.950854      2.138208
Ti       5.63824      1.93911      2.24248        -0.374226     -0.213221     -0.378763
Ti       5.71102      1.91002     15.08590        -0.023144      0.296683     -0.870733
Ti       5.63388     13.30925      2.38491         0.123069      0.123409     -0.892885
Ti       5.76762     13.22092     14.93572        -0.187918      0.287154     -0.222245
Ti       5.76776      1.89317      6.38461        -1.045857      0.879313      1.170044
Ti       5.69900     13.30940      6.43242         0.289336     -0.361339      0.185033
Ti       5.65062      1.80848     10.59418         0.056735      0.481315      0.480465
Ti       5.76550     13.20707     10.66154        -0.276593      0.159023      1.160769
Ti       5.72006      5.74135      2.29769        -1.154140     -0.106602     -0.064294
Ti       5.65467      5.68574     15.03280        -0.836892      0.287862      0.355429
Ti       5.74141      5.71534      6.37142        -0.867783     -0.174345      0.574882
Ti       5.69193      5.60424     10.56242         0.005912      0.827203     -0.256544
Ti       5.55840      9.54260      2.38918         1.349581     -0.485195     -0.620791
Ti       5.63917      9.47742     14.97806         0.032276     -0.115723      0.219548
Ti       5.64889      9.46786      6.43689        -0.330892      0.424759      1.083130
Ti       5.62342      9.41710     10.65741         1.441170     -0.085449     -0.837316
Ti       9.48061      1.85467      2.12572         0.506162      0.094124     -0.157449
Ti       9.49353      1.87651     15.11200        -0.604091     -0.077908     -1.006558
Ti       9.56738     13.29452      2.30435        -0.434790     -0.022663     -0.161627
Ti       9.52198     13.21546     14.93101        -0.157265      0.759128      0.378220
Ti       9.55049      1.80872      6.34680         0.634385     -0.235405     -0.145495
Ti       9.62214     13.28845      6.43768        -1.258161      0.325365      1.544363
Ti       9.47625      1.89570     10.69801         0.451109      0.452422      0.057309
Ti       9.54085     13.27720     10.78235        -1.539375      0.026476     -0.708029
Ti       9.47441      5.71176      2.15932         0.250732      0.066777     -0.883676
Ti       9.41802      5.61249     14.95145         0.835170      0.835672      0.664158
Ti       9.57091      5.71576      6.35277        -0.941187     -0.403624      1.123879
Ti       9.47668      5.64708     10.69729        -0.764234      0.237071     -0.773332
Ti       9.48770      9.51427      2.19153        -0.261390      0.154605      0.731435
Ti       9.41189      9.49016     15.02418        -0.581326     -1.026330      0.385767
Ti       9.46759      9.51664      6.41462         0.647218     -0.162603     -0.444026
Ti       9.38575      9.49902     10.69111        -0.786864     -0.601932     -0.164034
O       1.84697      1.81804      0.37701         0.319761     -0.158479     -0.339345
O       1.92325      1.89952     13.24360         0.094714      0.120937     -0.235997
O       1.73410     13.19396      0.59441         0.292999      0.424169     -2.028841
O       2.06365     13.34774     13.15078        -0.446763     -0.416917      0.342184
O      13.35031      1.84941      0.33414        -0.087457      0.165482     -0.114215
O      13.32204      2.02110     13.27221        -0.236945     -0.593450     -2.110695
O      13.30697     13.21181      0.29899         0.148135      0.207512      0.052699
O      13.24218     13.25194     13.06084         0.330695     -0.107217      0.383529
O       1.84738      1.88861      4.68861        -0.460917      0.014803     -0.506583
O       1.87030     13.28363      4.75680        -0.488931      0.157101      0.190071
O      13.31725      1.84980      4.61045         0.106068      0.096803     -0.528193
O      13.22928     13.18592      4.84667         0.279055      0.298423      0.254023
O       1.89200      1.94642      8.95292         0.184704     -0.523726     -1.050404
O       1.88896     13.36419      8.97758         0.138582      0.093382     -1.472622
O      13.24140      2.02676      9.06157        -0.105561     -0.446048     -0.907083
O      13.31362     13.19388      8.96824        -0.171226      0.186980      0.401716
O       1.96074      5.67289      0.43393        -0.262363      0.499243     -0.066395
O       1.80197      5.58975     13.27187         0.243555      0.199818     -1.374437
O      13.20924      5.63677      0.32187         0.213136      0.133489      0.537243
O      13.11806      5.82780     13.22303         0.440064     -0.371680     -2.086097
O       1.76553      5.60230      4.76768         0.166869      0.172930      0.025292
O      13.29172      5.73543      4.64898        -0.230040     -0.200738     -0.339754
O       1.95743      5.54110      8.88699        -0.014282      0.274644     -0.550678
O      13.15382      5.64642      8.86722         0.356093     -0.190466      1.044327
O       2.02161      9.30671      0.43217        -0.551170      0.779438     -0.050656
O       1.95529      9.35457     13.16190        -0.258579      0.608604      0.093855
O      13.29145      9.46478      0.29751         0.106297      0.062485      0.578378
O      13.17631      9.42002     13.16343         0.051424      0.107981      0.291703
O       1.73021      9.42083      4.74180         0.467631      0.132205      1.138203
O      13.16537      9.47007      4.71036         0.699325      0.054918     -0.733903
O       1.94910      9.45241      8.95409        -0.224360     -0.018164     -0.770632
O      13.21110      9.35486      9.02365         0.361935      0.619201     -2.443250
O       5.61949      1.76765      0.42881         0.141211      0.340300      0.360929
O       5.69711      1.85773     13.24621         0.020661      0.199193      0.395242
O       5.69889     13.19007      0.54265        -0.246627      0.555411      0.436388
O       5.67708     13.19684     13.12490         0.364489      0.104718      1.045705
O       5.70103      1.85012      4.65857         0.027591      0.076917     -1.494480
O       5.59838     13.28758      4.68084         0.046649      0.249995     -0.998413
O       5.69364      1.88237      8.77475        -0.170174     -0.274144      0.463833
O       5.79958     13.31908      8.89035        -0.613150      0.238786     -1.388062
O       5.68662      5.70313      0.49797        -0.090041      0.233124      0.242776
O       5.72042      5.65980     13.28960        -0.036015      0.003199     -0.689748
O       5.63721      5.74019      4.58318         0.180391     -0.011260     -0.206490
O       5.65796      5.68845      8.75079         0.171386     -0.190361      0.431959
O       5.53161      9.47394      0.56280        -0.079517      0.386132     -0.027860
O       5.66430      9.53762     13.21925        -0.009984      0.007361     -0.907777
O       5.68327      9.47910      4.67770         0.234791     -0.141145     -1.077639
O       5.69022      9.52693      8.83343        -0.149465     -0.368561      0.982578
O       9.43702      1.99809      0.31748        -0.136076     -0.802278      0.350424
O       9.48791      1.92959     13.23116        -0.019587     -0.560841      0.550721
O       9.56746     13.19759      0.54519        -0.125656      0.179715     -0.894162
O       9.49029     13.20102     13.17760         0.059873      0.515797     -1.040596
O       9.48806      1.64922      4.58379         0.146325      0.666333      0.059123
O       9.73931     13.46911      4.72856        -0.247544     -0.467349     -1.440811
O       9.58014      1.81710      8.90111        -0.239035      0.558381      0.195217
O       9.52970     13.31925      8.91506        -0.037975     -0.073136      0.986424
O       9.50400      5.57083      0.34238        -0.496862      0.267991      1.093011
O       9.45362      5.72816     13.17163        -0.071329     -0.218652     -0.343320
O       9.54423      5.68314      4.62000         0.120309      0.267377     -1.568082
O       9.42420      5.65402      8.87726        -0.064491     -0.215527      0.361536
O       9.42662      9.63286      0.43778         0.164908     -0.131762     -1.111062
O       9.37862      9.49203     13.24358         0.355887     -0.117706     -0.614788
O       9.49526      9.34221      4.59460        -0.259501      0.400127      1.132531
O       9.37230      9.37816      8.93805         0.187530      0.423630     -0.828334
O       3.68619      1.88346      2.59790         1.717716     -0.238280      0.111518
O       3.78818      1.97275     15.36714         0.786447     -0.154143      0.377335
O       3.69663     13.29455      2.66437         1.039169      0.578885     -0.057920
O       3.82411     13.12331     15.29091         0.716149     -0.071014      0.437316
O      15.17741      1.94582      2.49918         0.065388     -0.502500      0.393994
O       0.07003      1.73905     15.33898        -1.016784      0.600741     -0.157091
O      15.12078     13.27126      2.64927         0.268959      0.007043      0.542184
O       0.06017     13.30963     15.27612        -1.047612      0.019785     -0.035229
O       3.69195      1.90686      6.62364         1.289185     -0.254247      0.810330
O       3.77757     13.32403      6.84793        -0.516579      0.530198      0.199868
O      15.12317      1.92595      6.88000        -0.063426     -0.074628     -0.015868
O      15.14493     13.22377      7.00680         1.050513     -0.215061     -0.070314
O       3.80165      1.99474     11.03237         0.902920     -0.207717     -0.210042
O       3.90177     13.18955     11.02467        -1.108603     -0.062116     -0.108037
O       0.03970      1.73982     11.08362        -0.192050      0.191426      0.189163
O       0.00697     13.35367     11.05644         0.309592     -0.292321     -0.027256
O       3.77527      5.64205      2.62670        -0.019708      0.357462      0.030194
O       3.72431      5.54962     15.30439         1.141033      0.150236      0.219723
O      15.12162      5.79523      2.39109         1.363267     -0.248109      0.765570
O      15.15444      5.72155     15.30382        -0.029430     -0.008506      0.271233
O       3.77932      5.60322      6.78232        -0.568989      0.532655     -0.224179
O      15.07987      5.56385      6.98683         0.223157      0.699010     -0.865351
O       3.86037      5.71442     11.04830        -1.474755     -0.468887      0.147178
O       0.01448      5.67635     10.94681        -0.834835      0.195972      0.257866
O       3.72743      9.45538      2.70530         0.067386     -0.131206      0.112690
O       3.74593      9.66936     15.23396         0.329873      0.112780      0.461372
O       0.02008      9.39317      2.64691        -0.900177      0.376500     -0.856752
O      15.18456      9.30300     15.27246        -0.431070      0.502568      0.020193
O       3.80434      9.45843      6.87454        -0.801633     -0.457990     -0.143410
O       0.01052      9.51514      7.02709        -1.091745     -0.285277     -0.270677
O       3.80601      9.56907     11.08206        -0.866184     -0.319084     -0.134678
O      15.14020      9.47626     11.14215         0.439932     -0.204581     -0.683324
O       7.57384      1.94096      2.48915         0.063970     -0.272854      0.280448
O       7.55009      1.72211     15.27590         0.470365      0.239830      0.578031
O       7.59343     13.26339      2.61050         0.005138     -0.076662      0.361565
O       7.63726     13.22814     15.29202        -0.653853      0.668281      0.395895
O       7.63658      1.86818      6.65903        -0.338182      0.233954      0.299261
O       7.59164     13.25816      6.71324         0.079455      0.218401      0.034038
O       7.58294      1.85468     10.98809        -0.602205     -0.186252      0.125718
O       7.58230     13.56303     10.92999         0.835922     -0.337014      0.682035
O       7.57645      5.72504      2.59122         1.124242     -0.420145      0.193416
O       7.52596      5.80202     15.43223         0.805232     -0.213511     -0.218347
O       7.61475      5.61247      6.56765         0.623563      0.259317      0.401021
O       7.49001      5.57730     11.02434         1.295184      0.515805      0.255002
O       7.60742      9.64492      2.49592        -0.739275     -0.322044      0.501366
O       7.51531      9.45604     15.31603         0.803014     -0.551464      0.540799
O       7.55691      9.52102      6.87770         0.624100      0.002892     -0.857387
O       7.56175      9.37893     11.09459        -0.638467      0.029766      0.372643
O      11.40179      1.78268      2.35530         0.250736      0.543015      0.597053
O      11.38276      1.83365     15.31652        -0.275959      0.314680      0.070354
O      11.49340     13.29167      2.61017        -0.196719      0.138657     -0.099602
O      11.44428     13.20465     15.18969        -0.463623      0.164656      0.415901
O      11.41963      1.74877      6.66384        -0.516847      0.366050      0.508360
O      11.40287     13.26358      7.00808         0.373122     -0.002020     -0.058542
O      11.37696      1.90412     11.17479         0.179120      0.268469     -0.049085
O      11.36817     13.13202     11.03434        -0.105505      0.692360      0.101841
O      11.31722      5.63602      2.41433         1.105793      0.267164      0.720342
O      11.36571      5.53210     15.35728        -0.647580     -0.025613     -0.293675
O      11.35291      5.77792      6.81544         0.636889     -0.366206     -0.203171
O      11.36069      5.61294     10.94058         0.043438      0.084535      0.688655
O      11.40961      9.49532      2.45346         0.819729      0.209953      0.148481
O      11.26919      9.54791     15.36748         1.532825     -0.230337     -0.266959
O      11.39961      9.51773      6.80691        -0.589818     -0.505316      0.177745
O      11.24201      9.51787     11.01039         1.098458     -0.056170      0.617122
O       1.83188      3.77590      2.56651        -0.010870      1.156490      0.128240
O       1.82425      3.77159     15.52958        -0.019515     -0.271001     -0.705340
O       1.87939     15.19553      2.66326        -0.396707      0.618041     -0.044316
O       2.00001     15.12526     15.25034         0.204014     -0.139733      0.752676
O      13.30554      3.84362      2.41437        -0.369617     -0.874498      0.720436
O      13.29942      3.74378     15.24118         0.347872      0.050997      0.621873
O      13.36747     15.19559      2.42732         0.019119     -0.385295      0.279439
O      13.22997      0.00068     15.21272         0.099459     -1.574807      0.070443
O       1.76291      3.75882      6.88172         0.384715      0.174598     -0.291058
O       1.70944     15.18939      6.79318         0.527531      0.089356      0.479280
O      13.14523      3.77095      6.66788        -0.021974      0.271258      0.326316
O      13.27121      0.00660      6.94163         0.461247     -0.594027     -0.077972
O       1.87709      3.72827     11.20393         0.075515      0.586269     -0.410668
O       2.10717      0.01569     11.08871        -0.471672     -1.454468     -0.042448
O      13.36476      3.78892     11.13300        -0.214252      0.010124      0.206500
O      13.27744     15.16093     11.14649        -0.477637     -0.055241     -0.157594
O       1.91974      7.57909      2.65811        -0.033475     -0.145185     -0.080418
O       1.96719      7.57224     15.28853        -0.019046      0.271790      0.396107
O      13.23588      7.57582      2.54693         0.048667      0.455350     -0.193629
O      13.15353      7.50425     15.34318         0.052547      1.373658     -0.026219
O       1.81722      7.54551      6.87546         0.121104     -0.080353      0.226139
O      13.26397      7.54571      6.87890         0.445057      0.987913     -0.326109
O       1.85633      7.46941     11.10690         0.411270      1.403905     -0.324302
O      13.21803      7.58201     10.93907         0.097208     -1.464253      0.866180
O       1.92658     11.39848      2.50706        -0.371754     -0.307973      0.539098
O       1.73054     11.37606     15.25281         0.253230     -0.461569      0.199807
O      13.34596     11.39855      2.49323        -0.048644     -0.622385      0.250232
O      13.28666     11.34358     15.26641         0.441430      0.091649     -0.193652
O       1.97245     11.39612      6.87077        -0.452465      0.083769      0.058616
O      13.30050     11.32288      6.91487         0.156316      0.620433      0.172512
O       1.85362     11.42768     11.07051        -0.087926     -1.281276     -0.050471
O      13.21109     11.34477     11.06118         0.711118     -0.216818      0.191649
O       5.69385      3.77429      2.61182         0.029731      0.376647      0.045080
O       5.74018      3.84659     15.48090         0.189822     -1.292204     -0.170584
O       5.80569      0.02759      2.55559        -0.881614     -0.448688      0.242100
O       5.60548     15.16108     15.42441         0.232202     -1.027455     -0.307591
O       5.66262      3.87869      6.68157         0.235663     -2.247716      0.205897
O       5.66267      0.01115      6.70526         0.015196      0.011805      0.514413
O       5.64441      3.75830     11.03041         0.152053     -0.934647     -0.096843
O       5.57179     15.18977     11.09786         0.341379      0.541356     -0.561363
O       5.76326      7.64042      2.53979        -0.376846     -0.360786      0.498094
O       5.53304      7.63600     15.37902         0.054908     -0.344839      0.278950
O       5.74055      7.59803      6.69339        -0.108950     -0.317389      0.260235
O       5.68119      7.53044     10.98907        -0.092744      0.711472      0.046354
O       5.61452     11.41463      2.65396        -0.038879      0.207141      0.269243
O       5.86050     11.35766     15.47938        -0.947365      0.645568     -0.350292
O       5.53902     11.41159      6.73695         0.604445      0.117794      0.322589
O       5.97078     11.36301     10.96206        -0.735073     -0.103162     -0.155534
O       9.56694      3.70678      2.49954        -0.559823      1.162064      0.577464
O       9.36446      3.75339     15.34748        -0.195269      0.130367     -0.203882
O       9.53631     15.19298      2.55397        -0.445924     -0.318532     -0.267530
O       9.50025     15.14231     15.43667         0.185349     -0.440830     -0.201136
O       9.62636      3.74887      6.67561        -0.312103      0.053023      0.126505
O       9.49655     15.17336      6.90002        -0.100994     -0.286740      0.039172
O       9.40062      3.79246     11.12828         0.384656     -0.544365     -0.276493
O       9.57807      0.04302     11.03719         0.209380     -0.655177      0.532620
O       9.55847      7.63956      2.34564        -0.517365     -1.391350      0.489671
O       9.58136      7.48870     15.34442        -0.520578      1.077613      0.051746
O       9.48923      7.58404      6.80583        -0.501742      0.316783     -0.324819
O       9.42497      7.56394     11.03510         0.074568     -0.777052      0.378506
O       9.55568     11.42190      2.67755         0.040133      0.000204      0.329168
O       9.45922     11.37268     15.24892        -0.045410      0.014236      0.481834
O       9.58228     11.39039      6.80710        -0.531549     -0.309940     -0.205139
O       9.36834     11.40417     10.97835        -0.219396      0.131107      0.343229
