  # total energy = -7879.05529839 
CRSYTAL
PRIMVEC
    15.2000000000000000    0.0000000000000000    0.0000000000000000
     0.0000000000000000   15.2000000000000000    0.0000000000000000
     0.0000000000000000    0.0000000000000000    17.000000000000000
PRESSURE
7.6876 7.7607 2.60602 -0.215701 0.028853 0.031868
PRIMCOORD
320 1
Pb       3.81383      3.63663      4.12670        -0.446298      0.696102      0.037242
Pb       3.83510      3.74628     16.88412        -0.026581      0.058654      0.180442
Pb       3.74473     15.17659      4.17424         0.445049     -0.318057     -0.205373
Pb       3.63979     15.19020     16.92271         0.699444     -0.132026     -0.191746
Pb       0.02710      3.63947      4.18207        -0.018079      0.406505      0.210603
Pb      15.16750      3.74979      0.07252        -0.331703      0.278011     -0.472109
Pb      15.16327     15.15776      4.32545        -0.070743      0.209233     -0.637911
Pb      15.03062     15.18785      0.09457         0.092374     -0.127170     -0.328955
Pb       3.82557      3.90291      8.57627        -0.004182     -0.597244     -0.419749
Pb       3.79290     15.05712      8.65451         0.231759      0.239320      0.037044
Pb       0.14987      3.77733      8.53378        -0.367533      0.003709     -0.880114
Pb      15.14288     15.08563      8.35464         0.366815      0.885689      0.206058
Pb       3.71635      3.82450     12.68420         0.078951     -0.267012      0.531335
Pb       3.60778      0.10509     12.80199         0.426992     -0.724259     -0.301573
Pb      15.07482      3.96434     12.68095         0.135340     -0.570466      0.372981
Pb      15.16344      0.17007     12.82519         0.026921     -0.283463     -0.707922
Pb       3.80741      7.48284      4.17457        -0.058631     -0.220169     -0.520992
Pb       3.74077      7.52848     16.84127         0.022545      0.146763      0.619049
Pb       0.00850      7.64077      4.24876         0.234681     -0.861659     -0.297531
Pb      14.97778      7.55938     16.98152         0.599585     -0.461084      0.141746
Pb       3.86130      7.68690      8.47200         0.023692     -0.954426      0.285149
Pb       0.12715      7.58484      8.41141        -0.611110     -0.528630      0.150514
Pb       3.74811      7.62697     12.72478        -0.063416      0.160287     -0.138247
Pb       0.04949      7.65949     12.67152        -0.492559     -0.212772      0.178051
Pb       3.79485     11.16922      4.18824         0.390052      0.757881     -0.113547
Pb       3.78935     11.34074      0.16028         0.488337      0.200456     -0.474225
Pb       0.13590     11.32312      4.16176        -0.496568     -0.042361      0.267927
Pb      15.13953     11.36927      0.09334        -0.519575      0.235005     -0.237571
Pb       3.85319     11.35641      8.56886        -0.158984      0.611756     -0.344540
Pb       0.09772     11.46115      8.34304        -0.066573     -0.610259      0.340896
Pb       3.68386     11.41635     12.82820         0.561824      0.482408      0.051172
Pb       0.02996     11.37275     12.90896        -0.248105      0.512528     -0.558493
Pb       7.52421      3.68836      4.31017        -0.215716     -0.071623      0.224566
Pb       7.54468      3.70606     16.84882        -0.002535      0.316648      0.056718
Pb       7.60523     15.07329      4.23824         0.192422      0.072712      0.479229
Pb       7.62931     15.17529     16.90952        -0.127861     -0.057844     -0.249725
Pb       7.45754      3.75438      8.72306         0.135312      0.116098     -1.044331
Pb       7.65747     15.18422      8.51719        -0.372602      0.107774     -0.114937
Pb       7.64916      3.92573     12.80654        -0.142846     -0.199809     -0.482793
Pb       7.54692     15.10398     12.80075        -0.507938     -0.042590     -0.815493
Pb       7.68890      7.49268      4.13314        -0.357243      0.750761      0.589771
Pb       7.65421      7.69899     16.94818        -0.682196     -0.427267     -0.172976
Pb       7.52308      7.60098      8.50811         0.103835     -0.011658     -0.100216
Pb       7.49866      7.66192     12.68540         0.399339     -0.099855     -0.009143
Pb       7.60649     11.32124      4.36967        -0.287654     -0.279576     -0.365039
Pb       7.60702     11.38902     16.88597        -0.155746      0.248953      0.231834
Pb       7.68002     11.39679      8.66184         0.129853      0.099447     -0.661702
Pb       7.58508     11.41164     12.75322        -0.047172      0.062286     -0.197660
Pb      11.23103      3.74358      4.39636         0.470603     -0.164302     -0.328356
Pb      11.26317      3.63849      0.00785         0.170697      0.731489     -0.336194
Pb      11.33412     15.14178      4.25351        -0.052990      0.187744      0.113188
Pb      11.36557      0.08263      0.07896        -0.115516     -0.890870     -0.216258
Pb      11.43507      3.88376      8.52861        -0.438227     -0.134435     -0.031405
Pb      11.48006      0.03106      8.26154        -0.249791     -0.342030      0.723981
Pb      11.32819      3.83930     12.73344         0.043706     -0.004044     -0.339643
Pb      11.45082     15.19056     12.59887         0.483160      0.528627     -0.598328
Pb      11.30695      7.59328      4.27557         0.085717     -0.032334     -0.078674
Pb      11.35834      7.58856     16.95916         0.196115     -0.483756     -0.175915
Pb      11.34423      7.55029      8.58763         0.013742      0.029260     -0.393467
Pb      11.46457      7.68787     12.77629        -0.279433     -0.041468     -0.325230
Pb      11.26032     11.25162      4.27333         0.431951      0.198704      0.319052
Pb      11.34743     11.51158     16.95752         0.481136      0.022905      0.243654
Pb      11.48744     11.38353      8.38747        -0.180632      0.238719      0.247553
Pb      11.41092     11.59033     12.54761         0.179805     -1.324204      0.124119
Ti       1.85773      1.79863      2.10314         0.266864      0.638883      1.076647
Ti       1.84185      1.91856     15.00658        -0.823051     -0.872347      0.407856
Ti       1.92942     13.24910      2.27694         0.467389     -0.148329      0.822170
Ti       1.89291     13.17037     15.08989        -0.155125      1.327727     -1.755567
Ti      13.21900      1.84400      2.29956         0.271703     -0.417352     -0.366018
Ti      13.15310      1.83811     14.94236         1.679669      1.021721      0.655593
Ti      13.32376     13.15930      2.39258        -0.094945      0.224238     -0.974447
Ti      13.32867     13.32680     14.94667        -0.520069     -0.751253      0.931161
Ti       1.96926      1.83120      6.49708        -1.939457      1.049230      0.372124
Ti       2.03301     13.26054      6.44767        -0.208931     -0.917840     -0.979971
Ti      13.25538      1.98147      6.45419         1.229646     -0.716062      0.174092
Ti      13.42297     13.19301      6.35623        -1.206990      0.390174      0.493797
Ti       1.83381      1.95012     10.73086        -0.337560     -1.177360      0.575938
Ti       1.88993     13.25632     10.83994         0.248434      1.583383      0.669764
Ti      13.23855      2.04334     10.57254         0.093787     -1.930046      1.183689
Ti      13.44383     13.28161     10.60024         0.105086      1.035232      0.282533
Ti       1.81532      5.64442      2.18495         0.127568     -0.217109      0.490589
Ti       1.83604      5.67953     14.94370        -0.691608     -0.194459      0.006475
Ti      13.19807      5.61102      2.36099         1.614361     -0.347309     -0.889774
Ti      13.22308      5.59805     15.06455        -0.426747      0.012730     -0.579817
Ti       1.93656      5.61049      6.43154        -0.260178     -0.033477     -0.694073
Ti      13.26954      5.66496      6.47772         0.473492      0.159759      0.067970
Ti       1.91385      5.73294     10.70061        -1.181514     -0.354775      0.132047
Ti      13.26336      5.80488     10.68355        -0.302326     -0.369845     -1.099295
Ti       1.89462      9.40466      2.17688         0.437071     -0.652222     -0.155613
Ti       1.83533      9.45234     14.98123         0.264703     -0.148122      0.408054
Ti      13.27770      9.34919      2.18726        -0.201735      1.189512     -0.376532
Ti      13.21544      9.47932     14.94131         0.751487      0.324242      0.419722
Ti       1.92952      9.36829      6.49235        -0.375613      1.259885     -1.018022
Ti      13.35296      9.41119      6.44421        -0.891661      0.267358      0.118984
Ti       1.84798      9.58702     10.71992         0.202087     -0.638460     -0.042362
Ti      13.32400      9.53585     10.57787        -0.959046     -0.092172      3.159626
Ti       5.74846      1.85274      2.13923        -1.187488     -0.095961     -0.777848
Ti       5.69099      1.90514     14.82828         0.045246     -0.483525      0.915536
Ti       5.73282     13.32121      2.20830        -0.870951     -1.329819     -0.592312
Ti       5.72981     13.31313     15.01777        -0.733819     -0.338794      0.108383
Ti       5.57911      1.87903      6.55086         1.281829     -0.171099      0.855004
Ti       5.71703     13.32288      6.56330         0.374318     -0.508948     -0.568513
Ti       5.67618      1.94738     10.83754        -0.408835     -1.169299     -0.350315
Ti       5.69777     13.29922     10.78097        -0.436374      1.257560      0.182420
Ti       5.71901      5.63228      2.14663        -1.136013      0.697507     -1.452966
Ti       5.61312      5.70256     14.88501         1.246007     -0.407703      0.986493
Ti       5.63977      5.68751      6.44737         0.489964     -0.461689      1.198706
Ti       5.59690      5.69858     10.71295         1.238035      0.559014     -0.485565
Ti       5.82488      9.47754      2.21565        -0.713943      0.255541     -0.408888
Ti       5.66035      9.49141     14.96753         0.476137      0.550877      0.072354
Ti       5.63673      9.54468      6.56917         1.650356     -0.050248     -1.073192
Ti       5.64067      9.55085     10.78554         0.442580      0.102073     -0.168808
Ti       9.42466      1.89585      2.23037         0.984947     -1.667658     -0.244018
Ti       9.48734      1.81179     14.82972        -0.935397      0.340524      0.976970
Ti       9.50241     13.20459      2.28409        -0.004559     -0.018248     -0.073122
Ti       9.56018     13.25858     14.80509        -0.315390      1.037820      0.676138
Ti       9.44684      1.93272      6.62316        -0.526754     -0.601460     -0.986231
Ti       9.53766     13.25993      6.52949         0.305721     -0.033815      0.951600
Ti       9.41599      1.87268     10.74025         1.243974      0.777313     -0.895348
Ti       9.60458     13.37084     10.63730        -1.328782     -1.643526     -1.250618
Ti       9.43910      5.58489      2.16503         1.537113      0.569197     -1.484097
Ti       9.39681      5.71557     14.95828         0.575435     -0.435814      0.484873
Ti       9.36846      5.66141      6.54394         0.517149     -0.177771      1.125897
Ti       9.45479      5.77034     10.71768        -0.540585     -0.694957     -0.115516
Ti       9.54830      9.47552      2.15717        -0.215503      0.210676      0.662028
Ti       9.55988      9.54203     14.97455        -1.501758      0.126036     -1.660668
Ti       9.48490      9.41644      6.65111        -0.271706      0.758037     -1.124346
Ti       9.45614      9.51223     10.75704         1.052912     -0.538486     -0.937931
O       1.90209      1.88675      0.35410        -0.073634     -0.063673     -0.863560
O       1.82978      1.82758     13.24154         0.021757      0.477857     -0.686991
O       1.94060     13.20518      0.53688        -0.152041     -0.258829     -2.167154
O       1.83978     13.07469     13.21814         0.091849      0.219442      1.134384
O      13.16681      1.72753      0.46243         0.285491      0.394412      0.208349
O      13.25940      1.91000     13.20457        -0.263243     -0.171479     -0.849049
O      13.46842     13.36481      0.56883        -0.304781     -0.416736     -0.031350
O      13.28443     13.20826     13.19113        -0.127787      0.303241     -0.389231
O       1.86531      1.95597      4.72717         0.455078     -0.510318     -0.451564
O       1.94181     13.12017      4.65269         0.207793      0.847462      0.443974
O      13.25954      1.93425      4.65924         0.016623     -0.091669     -0.047925
O      13.45619     13.17702      4.56014        -0.266232      0.053738      0.332947
O       1.83526      1.95348      8.98586        -0.069498     -0.146399     -0.649711
O       2.03211     13.29787      9.09054        -0.583554     -0.293262     -1.560107
O      13.21173      1.89761      8.81002         0.302401      0.123738     -0.068402
O      13.52264     13.27735      8.79928        -0.235669      0.221680      0.648448
O       1.70472      5.67515      0.41239         0.745191     -0.095915     -0.589550
O       1.74426      5.70401     13.14056         0.337273      0.165437      0.423647
O      13.34811      5.60320      0.54807        -0.646087      0.056771     -0.721532
O      13.18963      5.70006     13.29028         0.268106     -0.323769     -1.168527
O       1.97518      5.67592      4.62054        -0.036761     -0.248606      0.465712
O      13.28435      5.55492      4.69334        -0.256218      0.427054     -0.112787
O       1.84746      5.75218      8.92408         0.348006     -0.275790      0.160370
O      13.22316      5.72890      8.86177         0.226575      0.189925      1.266354
O       1.91880      9.32110      0.41016        -0.060306      0.455045     -0.386835
O       1.78239      9.50835     13.18819         0.341365     -0.168174     -0.586924
O      13.06279      9.39519      0.37872         0.802738     -0.265219      0.253450
O      13.16692      9.49813     13.15359         0.250857      0.051361      0.613320
O       1.90100      9.22052      4.66329         0.207616      0.813544      0.135282
O      13.38519      9.43747      4.66880        -0.081582     -0.154673     -0.141341
O       1.82492      9.55204      8.94384         0.432916     -0.310256     -0.085671
O      13.26765      9.46303      8.90920         0.252530     -0.222545     -2.626251
O       5.73933      1.83681      0.35273        -0.002757      0.411289      0.899257
O       5.66503      1.91749     13.05365         0.108878     -0.227476      0.214710
O       5.65384     13.25757      0.39804         0.250386     -0.136133      0.443130
O       5.67372     13.32346     13.23937         0.235730     -0.177156     -0.065728
O       5.61881      1.78845      4.77815         0.059906      0.074885     -0.627594
O       5.65299     13.38462      4.78322         0.133080      0.145274     -0.434005
O       5.73359      1.99484      9.03173        -0.364995     -0.100281      0.195790
O       5.62249     13.30827      8.98936         0.001026     -0.451651     -0.166212
O       5.71067      5.52227      0.32557        -0.211580      0.508358      1.044384
O       5.59593      5.63516     13.14197         0.299161      0.601713     -1.127716
O       5.70679      5.56098      4.72270         0.073208      0.186301     -1.772686
O       5.61932      5.56211      8.89452         0.076722      0.526527      0.709354
O       5.95286      9.52698      0.41403        -0.557056     -0.264252      0.260096
O       5.69996      9.48322     13.17521         0.065457     -0.084094     -0.202574
O       5.63097      9.54928      4.76876         0.201399     -0.232076      0.091439
O       5.67487      9.41942      8.96876        -0.116028      0.622569      0.307977
O       9.51823      1.81406      0.41387        -0.290275     -0.243211      0.997079
O       9.46178      2.01140     13.08487         0.078420     -0.666252     -0.658860
O       9.50334     13.21050      0.53264        -0.045165      0.273728     -0.419314
O       9.50208     13.20381     13.01420         0.383639      0.315589     -0.439512
O       9.58796      1.89322      4.75717        -0.631283      0.297993      0.118875
O       9.58242     13.25088      4.76291        -0.235496     -0.229222     -0.936790
O       9.57897      1.85306      8.91557        -0.624412      0.058539      0.315209
O       9.53147     13.32584      8.80765         0.003675      0.088891      0.962025
O       9.51369      5.54231      0.33176        -0.197178      0.407288      1.426396
O       9.39351      5.60809     13.16857        -0.023708      0.041753     -0.163695
O       9.47144      5.74375      4.77270        -0.036208     -0.499957     -1.142069
O       9.42845      5.74193      8.92286         0.062406      0.099207      0.177472
O       9.43464      9.54727      0.38496         0.382690     -0.314909     -0.534848
O       9.55919      9.55519     13.16277        -0.180262     -0.004033      0.125072
O       9.35906      9.40931      4.78862         0.549885      0.145003      0.697497
O       9.38154      9.31161      8.92302         0.152865      0.352812     -0.035448
O       3.79700      1.82814      2.58896         0.396922      0.355610     -0.318656
O       3.83598      1.84543     15.36264        -0.664650     -0.251986     -0.385535
O       3.83695     13.16435      2.63327        -0.120463      0.315941      0.008306
O       3.74498     13.36106     15.31934         0.461782     -0.341019      0.248669
O       0.01146      1.73852      2.57447        -0.392320      0.128139     -0.049324
O      15.13509      2.03856     15.28037         0.058361     -0.244398      0.325295
O       0.08116     13.21292      2.62775        -0.769272      0.519021      0.350034
O      15.17969     13.19238     15.29893        -0.003241     -0.262157      0.538927
O       3.72901      1.84449      7.00087         1.098810     -0.140208     -0.165588
O       3.80812     13.21963      6.97220        -0.296125      0.535915     -0.024300
O      15.18687      2.00601      6.79811         0.232717     -0.480567      0.183734
O       0.11098     13.19848      6.76967        -0.322110      0.231920      0.016965
O       3.73902      1.85533     11.18960         0.048005     -0.027345     -0.381032
O       3.75483     13.40441     11.20815         0.214793     -0.296479      0.086097
O      15.09075      2.16573     11.09530         0.228072     -0.607423     -0.271557
O       0.03607     13.15040     11.17391        -1.050278      0.058030     -0.189079
O       3.83263      5.56743      2.51142        -0.187504      0.364787     -0.076123
O       3.78949      5.74136     15.15811        -1.129108     -0.034899      0.671523
O      15.15179      5.81090      2.49357         0.234047     -0.760393      0.825281
O      15.12095      5.57284     15.32649         0.419856      0.078558      0.088033
O       3.81406      5.64248      6.91682        -0.757298      0.559795     -0.148253
O       0.07479      5.72672      6.81660        -1.012965     -0.324107      0.047550
O       3.72530      5.70027     11.11560         0.216008      0.431930      0.068386
O      15.15272      5.68182     11.02044        -0.270464     -0.121419      0.088081
O       3.82630      9.49801      2.38534        -0.117072     -0.226514      0.513726
O       3.75888      9.45164     15.15192         0.935046     -0.610408      0.672701
O      15.17739      9.33376      2.41539         0.245983     -0.182095      0.390955
O      15.18684      9.39762     15.25404        -1.308762      0.271675      0.297595
O       3.80041      9.44200      6.99767        -0.417371      0.103937     -0.352163
O       0.03278      9.45599      6.86534         0.093445      0.072997     -0.169827
O       3.78300      9.52073     11.11902        -0.329718     -0.361021     -0.005173
O      15.19342      9.52710     11.09104        -0.058670      0.021728     -0.110172
O       7.57769      1.76095      2.64526        -0.290822      0.059986      0.047103
O       7.58753      1.83566     15.21440        -0.477898     -0.014083      0.055103
O       7.57546     13.23956      2.62878         0.168712      0.050484      0.266059
O       7.63608     13.18498     15.14709         0.003024      0.261412      0.427026
O       7.52833      1.85616      6.89408        -0.141927      0.014849     -0.062287
O       7.68321     13.21792      6.80678        -0.963988      0.001414      0.230921
O       7.57263      1.79033     11.07653         0.102100      0.720889      0.069542
O       7.56298     13.26836     11.01195         1.478575     -0.081115      0.333978
O       7.66029      5.76491      2.45147        -0.785757     -0.276015      0.446661
O       7.52019      5.50287     15.28689         0.548238      0.412948     -0.253541
O       7.53387      5.64065      6.84797         0.027850      0.077538      0.083561
O       7.46872      5.59429     11.02598         0.783588      0.132675      0.292851
O       7.68663      9.47916      2.65051        -0.569189     -0.222486     -0.110703
O       7.65675      9.68960     15.25035        -0.624584     -0.690486      0.039551
O       7.54573      9.58681      6.95957         0.104236     -0.193041     -0.130796
O       7.58344      9.59716     11.11330        -0.993304     -0.069207      0.248124
O      11.33242      1.86918      2.53269        -0.562948     -0.005202      0.348769
O      11.30876      1.65637     15.18327         0.408736      0.288057      0.556055
O      11.41074     13.05467      2.57196         0.325034      0.577975      0.353866
O      11.39293     13.33037     15.38449         0.612498      0.155263     -0.357236
O      11.37947      1.90454      6.75999         0.305343      0.114131      0.244552
O      11.51543     13.28258      6.82567         0.104750      0.209962     -0.355991
O      11.35129      1.81663     11.06522         0.637639     -0.042020      0.224345
O      11.46935     13.34366     10.94619         0.321370      0.126063      0.167175
O      11.39248      5.55836      2.57991        -2.166958     -0.157363      0.364383
O      11.27767      5.75265     15.23602        -0.438959     -0.514571      0.571023
O      11.35505      5.64369      6.91117         0.076489      0.156309     -0.496056
O      11.29538      5.86354     10.97762         1.034239     -0.194094      0.325437
O      11.44951      9.59240      2.63921        -1.060362     -0.746980      0.070100
O      11.36696      9.50733     15.28678         0.355527     -0.428646      0.473435
O      11.40759      9.53881      6.74395         0.453358     -0.866859      0.301401
O      11.32121      9.34119     10.97977         1.157643      0.292843      0.076525
O       1.80511      3.67918      2.49999         0.148800      0.746421      0.062766
O       1.96442      3.79366     15.32238         0.104250      0.567159      0.056882
O       1.93863     15.14833      2.41732         0.221708     -0.218532      0.829986
O       1.74376     15.14954     15.19407         0.469955      0.125901      0.811441
O      13.30153      3.65624      2.63602         0.315781      1.136352     -0.083584
O      13.04705      3.71949     15.36770         0.023487     -0.062948      0.188565
O      13.25459     15.16962      2.63853         0.024109     -0.802302      0.566940
O      13.35491     15.19456     15.40122         0.059565     -0.623240     -0.362850
O       1.94813      3.78972      6.89353        -0.078086     -0.281822      0.021532
O       1.87341     15.16092      6.73109         0.043435     -0.518703      0.217685
O      13.31176      3.80935      6.86588        -0.298593      0.167618      0.047240
O      13.39671     15.16270      6.70281         0.117318     -0.054104     -0.110352
O       1.92197      3.76625     11.16116        -0.163957      1.553233     -0.326048
O       1.73157      0.01885     11.11331        -0.007052      0.333086      0.403428
O      13.07330      3.85140     10.99123         0.078250      0.961277      0.191690
O      13.44840      0.03166     11.03930        -0.382513     -0.268210     -0.129466
O       1.91321      7.49248      2.53918         0.603910      0.851438      0.255308
O       1.88423      7.55690     15.33644        -0.084385     -0.459845     -0.176137
O      13.14579      7.50863      2.52870        -0.103467      0.481353      0.516169
O      13.12689      7.49124     15.29745         0.598174      1.597285      0.540988
O       1.88530      7.53566      6.70326         0.547253      0.064125      1.022342
O      13.32604      7.56937      6.82407        -0.168830     -0.075055     -0.088643
O       1.86507      7.58240     11.04156         0.045536      0.860144      0.290250
O      13.28295      7.64142     11.08940         0.369700     -0.363362     -0.003107
O       1.82614     11.32836      2.57877         0.418391     -1.160805     -0.310834
O       1.99816     11.29346     15.39852        -0.587204      0.408998      0.353447
O      13.41962     11.26885      2.44044         0.318361      0.526641      0.340826
O      13.28357     11.38185     15.40074        -0.010657     -0.321316     -0.166036
O       1.99525     11.29189      6.73180        -0.268494      0.546083      0.422905
O      13.31018     11.36049      6.83420         0.572323     -0.079124     -0.251197
O       1.97560     11.40873     11.16907        -0.205529     -1.230441     -0.240771
O      13.27222     11.41200     10.88396        -0.353641     -0.229188      0.408341
O       5.73603      3.81394      2.57713         0.673037     -1.698742      0.160764
O       5.63425      3.76074     15.22797        -0.067045     -0.208536      0.046847
O       5.63008     15.16513      2.34499         0.193919      0.530392      1.008913
O       5.77142     15.18044     15.32429        -0.102528      0.098093     -0.154263
O       5.62360      3.75546      6.85005         0.053200     -0.484717      0.045681
O       5.64911     15.10218      7.04169         0.018881      1.724259     -0.185271
O       5.53480      3.87943     11.09188         0.274217     -1.591722      0.029218
O       5.72555     15.17361     11.07863        -0.243335      0.963642      0.351216
O       5.72333      7.58114      2.48217         0.008341     -0.471521      0.323073
O       5.78724      7.56802     15.29833         0.090492      0.647755      0.101899
O       5.67256      7.55825      6.74443        -0.085242      0.803350      0.563754
O       5.72598      7.61463     10.96575        -0.368635      0.170607      0.711599
O       5.66837     11.34132      2.68090         0.583881      0.084395     -0.231950
O       5.67288     11.35179     15.48015        -0.618452      0.331877     -0.650853
O       5.64352     11.45590      6.84590        -0.088484     -1.349140      0.500721
O       5.67617     11.46849     11.17731        -0.426263     -1.624052     -0.170725
O       9.34287      3.70250      2.56126         0.250739      1.115397      0.253681
O       9.43339      3.62534     15.41307         0.778372      1.018642     -0.707048
O       9.52521     15.05910      2.72776         0.000716      1.180067     -0.417291
O       9.43938     15.12679     15.31639        -0.294693     -0.081979     -0.311493
O       9.38349      3.76453      6.93861         0.449955      0.676963     -0.224042
O       9.43923      0.01764      6.80276         0.550302     -0.647739      0.200524
O       9.51864      3.78462     11.05675        -0.273252      0.291329     -0.055739
O       9.50864     15.14140     10.95021        -0.214609      0.994891      0.804937
O       9.58451      7.61620      2.58500         0.103326     -1.222647     -0.276990
O       9.31119      7.61185     15.25423         0.387306     -0.135003      0.059522
O       9.44928      7.55925      6.87246         0.013243     -0.239180      0.117903
O       9.30334      7.60210     11.11233        -0.193834     -0.382741      0.237987
O       9.51326     11.28869      2.62479        -0.437379      0.691363      0.436390
O       9.58781     11.48077     15.23580         0.181033     -1.218192      0.441748
O       9.67925     11.35637      6.91823        -1.098210      0.207493     -0.089691
O       9.56870     11.36436     10.76680        -0.063048      1.009323      0.809701
