  # total energy = -7866.24578160 
CRSYTAL
PRIMVEC
    15.010000000000000    0.0000000000000000    0.0000000000000000
     0.0000000000000000   15.010000000000000    0.0000000000000000
     0.0000000000000000    0.0000000000000000    16.400000000000000
PRESSURE
18.4359 18.057 8.80216 -0.139583 0.185173 -0.003286
PRIMCOORD
320 1
Pb       3.61556      3.79502      4.02190         0.774157      0.067961      0.675645
Pb       3.84465      3.67496      0.06191        -0.393524      0.291631     -0.678745
Pb       3.71211     14.99102      4.07578         0.070806     -0.155515      0.343214
Pb       3.62346     14.99768      0.02013         0.600295      0.067621     -0.189160
Pb       0.02187      3.69024      4.08407        -0.288371      0.092907      0.146429
Pb       0.06115      3.82273      0.08009        -0.017396     -0.343120     -0.572034
Pb       0.07773     14.95663      4.00292        -0.462177      0.468093      0.451523
Pb      14.93812      0.00669     16.38744         0.072092     -0.246649     -0.226853
Pb       3.92597      3.69945      8.23359        -0.557481      0.391216     -0.644163
Pb       3.79323     14.93559      8.29227         0.006137     -0.321558     -0.047806
Pb       0.10479      3.67395      8.16861        -0.543463      0.812364     -0.252092
Pb       0.11744      0.06309      8.30464        -0.458431     -0.880382     -0.566542
Pb       3.73873      3.79777     12.34276        -0.031060     -0.158835     -0.274426
Pb       3.82191      0.03935     12.26404        -0.340469      0.228847     -0.207455
Pb      14.96502      3.64250     12.29462         0.690079      0.322199     -0.112698
Pb      14.92327     14.99753     12.31958        -0.103188     -0.236930     -0.077252
Pb       3.61317      7.53048      4.03681         0.180017      0.073157     -0.017615
Pb       3.71197      7.43228      0.00215         0.050652      0.049678     -0.037649
Pb      14.88515      7.42156      4.08527         0.348005      0.318136      0.406536
Pb       0.02195      7.48337      0.03132         0.023453      0.479588     -0.594283
Pb       3.66790      7.45080      8.26284         0.545633      0.245696     -0.632151
Pb      14.94083      7.43013      8.15549        -0.030244      0.180465      0.411714
Pb       3.80831      7.52925     12.32792        -0.058479     -0.757864      0.111381
Pb       0.13981      7.49676     12.35898        -0.389280     -0.135538      0.026784
Pb       3.67051     11.33328      3.95888        -0.306856     -0.240296      0.361788
Pb       3.70621     11.28288      0.06964         0.205539     -0.407254     -0.472576
Pb      14.88356     11.31462      4.12412         0.155888     -0.534627      0.004964
Pb      14.96648     11.13387     16.36582         0.021988      0.419192     -0.500820
Pb       3.70077     11.17172      8.22989         0.162245      0.381820      0.052251
Pb      14.89675     11.20796      8.32579         0.315114     -0.117421     -0.718550
Pb       3.75631     11.26586     12.36165        -0.218794      0.222793      0.120578
Pb      14.99137     11.19962     12.28035         0.430038      0.441412      1.441608
Pb       7.49149      3.63826      4.15709         0.095678      0.424387      0.023786
Pb       7.46217      3.80642     16.39658         0.339835     -0.186175      0.088375
Pb       7.42256      0.02624      4.04964         0.404008     -0.211784      0.488800
Pb       7.50841      0.02900      0.07246        -0.201540      0.199494     -0.558667
Pb       7.56824      3.81973      8.31066         0.175959     -0.034115     -0.844887
Pb       7.49560     14.79250      8.32097         0.457864      0.432841     -0.369833
Pb       7.57447      3.62182     12.27886        -0.101467      0.485180      0.306276
Pb       7.49859      0.00389     12.32154         0.071940     -0.517304      0.139401
Pb       7.43560      7.52130      4.08872        -0.263246     -0.669528     -0.023549
Pb       7.45578      7.52465      0.12844        -0.153037     -0.250621     -0.760434
Pb       7.47379      7.58888      8.22251        -0.638711     -0.170855     -0.355161
Pb       7.51260      7.31941     12.28946        -0.206586      0.820728      0.776093
Pb       7.36167     11.32410      4.08583         0.226793      0.119601     -0.526664
Pb       7.51017     11.24338      0.10294        -0.304418     -0.237971     -0.867720
Pb       7.44117     11.18726      8.35043        -0.277767      0.103349     -0.382333
Pb       7.50437     11.16361     12.45446         0.345038      0.025948      0.163295
Pb      11.37556      3.70328      4.09281        -0.497188      0.148976     -0.077085
Pb      11.14997      3.73058      0.00586         0.195461      0.232878     -0.184571
Pb      11.23642      0.04362      4.12902        -0.017873     -0.177165      0.143984
Pb      11.12355     14.95216      0.03227         0.425761      0.219104     -0.511658
Pb      11.23768      3.77113      8.17574        -0.052116     -0.150654     -0.092978
Pb      11.31117     14.96759      8.24145        -0.793205     -0.061907     -0.340368
Pb      11.31863      3.73605     12.36372         0.288484     -0.448063     -0.509446
Pb      11.24050     14.94680     12.22351         0.708102      0.658394      1.091765
Pb      11.01786      7.41939      4.09495         1.299678      0.391451      0.699326
Pb      11.19851      7.51306     16.38403         0.515931      0.000995     -0.093792
Pb      11.16418      7.50848      8.25366         0.632319      0.333188     -0.116882
Pb      11.27164      7.51016     12.38050         0.406669      0.294891     -0.073440
Pb      11.17748     11.32521      4.19027         0.810846     -0.645279     -0.124316
Pb      11.16644     11.31872      0.10416         0.637904     -0.791139     -1.006741
Pb      11.15037     11.16880      8.19543         0.106523     -0.094756     -0.152197
Pb      11.27061     11.27745     12.33749        -0.288024     -0.263987      0.442898
Ti       1.94332      1.82304      2.03238        -1.851251      0.036795      1.083812
Ti       1.86079      1.89261     14.42142         0.957225      0.020476     -0.186099
Ti       1.77893     13.10459      2.03524         1.043676      0.170850      0.047099
Ti       1.90739     13.14380     14.48696        -2.007404     -0.881452     -1.143489
Ti      13.12448      1.88498      2.01886         0.667982     -0.042079      0.643033
Ti      13.13382      1.90300     14.42825         0.013897     -0.770657     -1.028859
Ti      13.08168     13.14409      2.03614        -0.336939     -0.517065      0.779142
Ti      13.09023     13.18000     14.37935         1.063620     -1.852145     -0.492817
Ti       1.88744      1.85523      6.21992         0.172426      0.620056     -0.786835
Ti       1.76738     13.14866      6.29137         0.949398     -1.221072     -0.659309
Ti      13.09635      1.85631      6.17869         0.636320     -0.024763      0.223550
Ti      13.05464     13.09994      6.26263        -0.053194      0.610305      0.037978
Ti       1.91184      1.82531     10.18989         0.624901      1.463042      1.389239
Ti       1.86792     13.09500     10.38994         0.128160      0.806886     -0.593958
Ti      13.17044      1.91784     10.21732        -0.463216     -0.747278      2.613356
Ti      13.11874     13.08225     10.26019         1.432714      1.165536      0.794077
Ti       1.81568      5.60915      2.10115         0.915506      0.881502      0.223304
Ti       1.89817      5.60690     14.37903        -0.099294      0.492116      0.562118
Ti      13.12618      5.64077      2.02238        -0.002562     -0.816580      1.520807
Ti      13.15475      5.62502     14.40234         0.210841      0.232540      0.370655
Ti       1.83060      5.64855      6.25264         0.256658     -1.117895     -0.327159
Ti      13.06333      5.60263      6.23195         0.531718     -0.220894     -0.823343
Ti       1.96321      5.59751     10.26766        -0.456303     -0.714556      0.210360
Ti      13.22057      5.63863     10.28764         0.381931      0.410163     -0.156570
Ti       1.81084      9.40394      2.02650         0.921425     -0.847193      0.153774
Ti       1.99511      9.39585     14.35687        -2.160389     -0.145242      0.619176
Ti      13.12116      9.34244      2.10856        -0.081910      0.800609     -0.495896
Ti      13.15361      9.42538     14.48649         0.176944      0.119007      0.206311
Ti       1.83573      9.34386      6.30056         0.340019      0.907849     -1.122417
Ti      13.12449      9.32909      6.18814        -0.332062      0.023713      0.426097
Ti       1.84101      9.36730     10.29039        -0.256131     -0.320293     -0.077399
Ti      13.10131      9.41104     10.45085         0.182773     -1.518480     -1.715185
Ti       5.63388      1.88410      2.09665         0.847768      0.370377      0.858125
Ti       5.61837      1.83804     14.35013        -0.057602      0.320781      0.243700
Ti       5.59870     13.19278      1.93920        -0.003874     -0.697702      0.906712
Ti       5.60858     13.15697     14.44408         0.641390     -1.114271     -0.518902
Ti       5.69860      1.85250      6.26661        -0.358202      0.612790     -0.406356
Ti       5.54230     13.11746      6.24924        -0.139852      0.210024     -0.655164
Ti       5.70904      1.93246     10.26643        -1.244384     -1.203463      1.177320
Ti       5.63475     13.03867     10.44237        -0.089543      0.578478     -0.235210
Ti       5.62727      5.67037      2.10204        -0.609661     -0.467573      0.143250
Ti       5.66782      5.59110     14.41845        -0.651528      1.073169     -0.518601
Ti       5.59712      5.67108      6.18225         0.084270     -0.228084     -0.340747
Ti       5.74374      5.64471     10.26352        -1.583313     -0.147493      0.494738
Ti       5.63829      9.43768      2.07398        -0.776881     -1.173174     -0.651332
Ti       5.62863      9.37440     14.47087         0.760972     -0.043635      0.931212
Ti       5.55693      9.44818      6.07818         0.175462     -1.084118      2.816022
Ti       5.55406      9.34962     10.43475         0.515910      0.649425     -1.480556
Ti       9.41167      1.88790      2.09257        -0.546843      0.059885      0.771955
Ti       9.39316      1.84811     14.45967        -0.635026      0.389452     -0.323715
Ti       9.34744     13.07964      2.08246        -0.689924      0.138584      0.352692
Ti       9.34264     13.07215     14.45588        -0.036732     -0.268537     -0.185916
Ti       9.35182      1.84847      6.28378         0.303866     -0.905327     -0.822699
Ti       9.23171     12.98216      6.14172         0.783923      1.948819      1.133349
Ti       9.38486      1.84362     10.32152         1.389497      0.838551     -0.838411
Ti       9.43819     13.13618     10.34001        -1.361517     -0.908648     -0.824649
Ti       9.41960      5.64556      2.11004        -2.120769     -1.231937     -0.548873
Ti       9.39443      5.60108     14.35642        -0.434748     -0.478965      0.904017
Ti       9.32237      5.63796      6.23303        -1.415651     -1.084138     -0.689519
Ti       9.52245      5.63960     10.35187        -1.537492     -0.919184     -0.593396
Ti       9.39061      9.37236      2.08464        -0.134507      0.557525      0.694789
Ti       9.37552      9.31047     14.44549         0.375780      0.596036     -0.369491
Ti       9.30153      9.33741      6.14974         0.955856      0.991553     -0.526046
Ti       9.32304      9.33352     10.40934        -0.161754      1.250327      0.684027
O       1.86721      1.67919      0.27233        -0.416765      0.720530     -0.488434
O       2.09193      1.82886     12.62721        -0.593387      0.119820      0.069656
O       1.93630     13.11543      0.25355        -0.694745      0.103521     -0.564829
O       1.87121     13.00913     12.61935         0.335765      0.712928     -0.108641
O      13.15856      1.83001      0.24082        -0.069097     -0.143317     -1.224152
O      13.17130      1.84105     12.55714         0.024504      0.388133      1.156534
O      13.13343     13.10854      0.25751        -0.450580      0.342391      0.378565
O      13.11627     13.03496     12.53481        -0.012641      0.561245      0.509108
O       1.94036      1.85520      4.34042        -0.165593     -0.199728      0.230901
O       1.86927     13.09215      4.37162        -0.101651      0.112849      0.517309
O      13.12156      1.83910      4.33523        -0.494581      0.071595      0.533620
O      13.02085     13.20986      4.44476         0.376268     -0.201660     -0.384077
O       1.82536      1.92712      8.39316         0.232989     -0.328902     -0.379580
O       1.86453     13.24676      8.57753        -0.195266     -0.053971     -1.306833
O      13.14676      1.80448      8.47756        -0.099996      0.347634     -0.629820
O      13.11185     13.04382      8.45546        -0.012322      0.001366     -0.247355
O       1.80950      5.63932      0.30706         0.113922     -0.260320     -0.354416
O       1.81690      5.50174     12.61264         0.429858      0.281295     -1.025380
O      13.28655      5.60484      0.26663        -0.411334     -0.399424     -0.475568
O      13.08182      5.58369     12.59926         0.213791      0.225352      0.082078
O       1.83266      5.72506      4.41983         0.049961     -0.369585     -0.314122
O      13.19345      5.50345      4.36682        -0.598038      0.643162      0.800440
O       1.83013      5.64940      8.45587         0.537298     -0.353041      0.134891
O      13.04649      5.61454      8.47535        -0.047793     -0.093227      0.392788
O       1.78817      9.34323      0.22194         0.343648      0.462089      0.342239
O       1.79816      9.42178     12.54677         0.887524     -0.343801     -0.415988
O      13.20529      9.38780      0.28184         0.078678      0.131368      0.344837
O      13.13729      9.40787     12.67244        -0.540922     -0.526935     -1.102437
O       1.91235      9.34511      4.46880        -0.457528      0.325420     -0.397809
O      13.08168      9.30114      4.41808         0.451565     -0.146116     -1.090519
O       1.91072      9.26788      8.46284        -0.121456      0.185422      0.828218
O      13.13859      9.48368      8.53560        -0.209052     -0.223007      0.972519
O       5.68201      1.80179      0.34281         0.153731      0.389424     -1.109132
O       5.59968      1.85660     12.52806        -0.079276     -0.187886     -0.020914
O       5.77478     13.11056      0.15800        -0.470689      0.228017      0.331351
O       5.72411     13.13899     12.57360        -0.761884      0.045011     -0.158658
O       5.67089      1.84090      4.40343        -0.168414     -0.391063      0.140085
O       5.58310     13.26650      4.38623        -0.201133     -0.776703      0.713025
O       5.64815      2.05097      8.51443         0.296378     -0.578232     -1.252057
O       5.56597     12.96057      8.64714         0.544493      0.311778     -1.258601
O       5.38459      5.51861      0.26892         0.735264      0.277574      0.211890
O       5.65905      5.68355     12.57614         0.163464     -0.265891      0.463155
O       5.68594      5.70816      4.36590         0.001225     -0.123684     -0.472870
O       5.66642      5.68260      8.45361        -0.170677     -0.344857      0.166362
O       5.72856      9.43352      0.22219        -0.251396     -0.442298      0.742585
O       5.58067      9.25057     12.70693        -0.279617      0.218179     -1.845190
O       5.59338      9.47647      4.35484         0.121936     -0.069810     -2.050598
O       5.57281      9.49418      8.57079         0.232773     -0.684904      0.990927
O       9.28289      1.93943      0.29350         0.345220     -0.568318     -0.357550
O       9.36543      1.75553     12.65588         0.036723      0.697477     -0.636324
O       9.23881     12.96025      0.22585         0.604517      1.218634      0.472910
O       9.43972     13.12814     12.64624        -0.157841      0.216216     -0.592134
O       9.44942      1.79861      4.38070        -0.172084      0.354915      0.473861
O       9.34109     12.94995      4.31834        -0.146048      0.134052      0.032620
O       9.41283      1.73056      8.51312        -0.094266      0.480331      0.221682
O       9.32030     13.08153      8.48427         0.286115      0.072977      1.028414
O       9.43538      5.53793      0.28856        -0.205791      0.551924      0.385726
O       9.33642      5.49316     12.54543         0.368333      0.167245     -0.258352
O       9.26208      5.69181      4.36380         0.140145     -0.257878      0.133644
O       9.40305      5.67160      8.48457         0.056233      0.112210      0.309204
O       9.33913      9.23895      0.29702        -0.249119      0.075094     -0.678667
O       9.49250      9.39295     12.62565         0.051226     -0.402829     -0.223199
O       9.51715      9.44997      4.30994        -0.914096     -0.145948      0.584800
O       9.35887      9.36439      8.60488         0.047446     -0.209831     -0.626543
O       3.76655      1.95386      2.18077        -0.086939      0.258824      0.845894
O       3.76605      1.73128     14.80357        -0.180668      0.233466     -0.167616
O       3.71135     12.99393      2.16574         0.723193      0.091967      0.639331
O       3.72261     13.15224     14.73228         0.669971      0.492493     -0.040155
O      14.94053      1.75993      2.30475         1.795863     -0.490141      0.281282
O       0.02934      2.10538     14.58844        -0.626749     -0.501567      0.340879
O      14.95764     13.22566      2.29788        -0.924435      0.172802      0.434131
O      14.96530     12.91326     14.73022         0.732822      0.687420     -0.115090
O       3.76222      1.84944      6.50559        -0.027863      0.072584      0.126896
O       3.71336     13.18255      6.51464        -0.171273      0.185943      0.130851
O      14.96856      1.89056      6.48160        -0.071243     -0.875309     -0.115664
O      14.98541     13.26833      6.48601        -1.298501     -0.175788      0.043829
O       3.80351      1.95211     10.50384         0.266250      0.710814      0.002252
O       3.71701     12.81401     10.38688         1.076294      0.133327      1.597353
O       0.07368      1.70033     10.67591        -0.750798      0.130441     -0.623553
O       0.00773     13.32646     10.50609        -0.785288      0.180748      0.347428
O       3.69743      5.60180      2.51117         0.028534     -0.784268     -0.398432
O       3.71635      5.71667     14.60225         1.212070      0.248139      0.100605
O       0.00523      5.67155      2.52709        -0.434807      0.024556     -0.783068
O       0.04079      5.47784     14.62668        -1.874575     -0.094640      0.331595
O       3.73726      5.54609      6.49249        -0.491269      0.153847      0.086635
O      14.94308      5.61389      6.54882         0.026732      0.416841     -0.076632
O       3.82312      5.48261     10.68885         0.167855     -0.171632     -0.616514
O       0.10125      5.76042     10.57066        -1.468209      0.149222      0.042296
O       3.74522      9.46411      2.33410        -0.474539      0.531290      0.108736
O       3.75979      9.18323     14.71720         0.517155      0.114409      0.046639
O       0.01310      9.38101      2.35315        -0.365688     -0.448682      0.584883
O       0.04445      9.48263     14.56170        -0.702529      0.056901      0.641881
O       3.74540      9.35282      6.42034        -0.382365     -0.232995      0.442668
O      15.00982      9.33399      6.57525        -0.529517     -0.258402     -0.169615
O       3.67881      9.58101     10.59882         0.623101     -0.057475      0.361129
O       0.00410      9.13846     10.65144        -0.254558      0.166425     -0.309905
O       7.54553      1.70067      2.38119        -0.850706      0.090193      0.084544
O       7.44218      1.92403     14.59378         0.481983     -0.142139      0.509294
O       7.45007     13.22758      2.42233        -0.215996      0.212859     -0.205409
O       7.45663     12.92135     14.60734         1.002955      0.443078      0.063883
O       7.53961      1.92425      6.54794        -1.160356      0.052254     -0.035788
O       7.41036     12.88543      6.51812         0.157074      0.424485      0.000521
O       7.56003      1.73332     10.62539        -0.564500     -0.551051      0.066485
O       7.56000     13.36223     10.49172         0.022461     -0.156163      0.570121
O       7.46165      5.89108      2.11638         0.626353     -0.402423      0.563598
O       7.51487      5.50423     14.78926        -0.210248      0.329268     -0.235279
O       7.45763      5.66637      6.43971         0.716479     -0.102800      0.627431
O       7.51785      5.76419     10.55697         1.211928      0.263937     -0.110260
O       7.46617      9.28094      2.45102         0.220735     -0.363335     -0.173012
O       7.54394      9.50523     14.59242        -0.516515     -0.218519      0.348445
O       7.50989      9.38945      6.56365        -1.020137     -0.076861     -0.480775
O       7.44844      9.12625     10.76831         1.075436      0.497677     -0.593541
O      11.27671      2.03478      2.19982        -0.947728     -0.070578      0.648503
O      11.23532      1.77839     14.63698         0.123119     -0.241137      0.628386
O      11.18358     12.88429      2.30012         0.353127      0.209528     -0.073822
O      11.25135     13.12665     14.74664        -0.706609      0.821891      0.349361
O      11.20717      1.94594      6.53069         0.888997     -0.152844     -0.061323
O      11.13706     12.99578      6.50252         0.711474      0.158913     -0.160577
O      11.34238      2.03887     10.65897        -0.921420      0.161711     -0.445391
O      11.31461     12.95539     10.47843        -1.203120     -0.138226      0.399593
O      11.20248      5.52401      2.35180         2.222492      0.127673      0.196713
O      11.22932      5.68636     14.73151         0.392903     -0.271880     -0.253367
O      11.12953      5.51498      6.40333         2.078620      0.189226      0.179660
O      11.29224      5.43983     10.56069         0.270439     -0.137160      0.244973
O      11.25786      9.46777      2.25656        -0.677885     -0.129903      0.194155
O      11.29228      9.26762     14.87372        -0.924135     -0.030942     -0.471866
O      11.25443      9.36330      6.37595        -0.435322      0.327563      0.961840
O      11.25996      9.43670     10.58741        -0.408294      0.531003      0.250686
O       1.73599      3.70292      2.29709         0.369489     -0.117074      0.111074
O       2.02419      3.76739     14.82861         0.047963     -0.912576     -0.144017
O       1.96348     14.94869      2.33475         0.001405      0.946511      0.503532
O       1.71116     14.98853     14.74987         0.097493      0.330931     -0.425955
O      13.27061      3.76187      2.36591        -0.420017      0.013480     -0.206728
O      12.92317      3.68710     14.66554         0.325795      1.844859      0.054853
O      12.91002      0.01100      2.36216         0.007270     -1.143035     -0.229023
O      13.24282     14.98614     14.54551         0.249047      1.040139      0.737727
O       1.63172      3.75755      6.39482         1.200157     -0.623501      0.047273
O       1.83798     15.00927      6.44750         0.140563      0.508906      0.252951
O      13.18400      3.75233      6.50492        -0.732444     -0.719947      0.091023
O      12.95143      0.00968      6.58478         0.376315     -0.264099     -0.579804
O       1.78295      3.71695     10.52334         0.114948     -0.137357      0.214507
O       2.11619      0.03613     10.41717         0.036525     -1.026806      0.853770
O      13.27767      3.78165     10.65690         0.183149     -0.661797     -0.466436
O      12.97424     14.99201     10.69251         0.486160      0.019364     -1.130907
O       2.02499      7.49712      2.19491        -0.665512      0.511681      0.700003
O       1.73547      7.54318     14.70082         0.078495     -1.205826     -0.341699
O      13.18833      7.47996      2.28580        -0.544522     -0.233587      0.464891
O      13.13495      7.50327     14.83265         0.520036     -0.971063     -0.760995
O       1.84310      7.44104      6.55363         0.159156      1.346250      0.043299
O      13.12573      7.43843      6.57799        -0.473809      0.639613     -0.266731
O       2.11637      7.42994     10.55426        -0.122663      1.566510      0.355975
O      12.90711      7.47812     10.60268         0.437382     -0.032097      0.100577
O       1.73419     11.30351      2.27501         0.274402     -1.327504      0.626856
O       2.03223     11.22003     14.70091         0.040806      0.363870      0.179717
O      13.13628     11.18430      2.46336         0.541411      1.790039      0.017842
O      13.01518     11.30074     14.68137        -0.249944     -1.266546      0.355006
O       1.77187     11.26560      6.69728         0.171963      0.043680     -0.712176
O      13.25672     11.22682      6.34192        -0.211869      0.514523      0.352283
O       1.62319     11.27340     10.54788        -0.006906     -1.548570     -0.387629
O      13.30634     11.24377     10.69859        -0.200896      0.022260     -0.880523
O       5.76268      3.79654      2.45012        -0.234298     -1.066967     -0.186850
O       5.54373      3.73550     14.62024        -0.389620     -0.493465      0.406603
O       5.45842     14.98606      2.31365         0.166844      0.807008      0.248187
O       5.64507     14.97954     14.65267         0.384373      0.469547      0.132988
O       5.61732      3.75122      6.41966         0.141990     -0.231757      0.314147
O       5.80300     14.98495      6.65693        -0.769459     -0.263235     -0.262603
O       5.93235      3.77904     10.53060        -0.624330     -0.448956      0.176489
O       5.48419     14.96102     10.49324         0.032330      0.526165      0.201993
O       5.46439      7.51368      2.26724         0.059767      0.527343      0.218106
O       5.75586      7.46405     14.76263        -0.050943     -0.037054      0.202341
O       5.67074      7.52435      6.47099        -0.318842      0.799521      0.068844
O       5.52822      7.51718     10.59154        -0.617033     -0.709502      0.012596
O       5.67371     11.27215      2.19056         0.358662      0.853441      0.842006
O       5.47683     11.24926     14.63316        -0.338651     -0.204880     -0.023518
O       5.47975     11.24429      6.57028         0.405773      0.268872     -0.624321
O       5.89698     11.16998     10.74230        -0.332012      0.758368      0.070006
O       9.26827      3.74206      2.44114        -0.302392      0.243314     -0.134379
O       9.31268      3.73688     14.82915         0.792930     -0.375213     -0.701637
O       9.49040     14.93073      2.35910         0.268475      0.789370     -0.420156
O       9.26089      0.00282     14.77407        -0.032455     -0.969893      0.386032
O       9.28284      3.72222      6.59326         0.265450      0.722979     -0.210329
O       9.18795     14.94181      6.47533         0.589194     -0.683541     -0.264139
O       9.18223      3.73625     10.49816         0.349922      0.129569      0.168154
O       9.65357      0.04304     10.59873        -0.477890     -1.675802     -0.176033
O       9.45467      7.51442      2.45602        -0.263551     -0.105438     -0.451575
O       9.28363      7.43452     14.53961         0.044761      0.121661      0.633953
O       9.42727      7.51298      6.40701        -0.169088     -0.100665      0.408019
O       9.52342      7.48204     10.59049         0.287895     -0.231767      0.412320
O       9.01819     11.22659      2.17781         0.740509     -0.323978      0.645410
O       9.50396     11.18450     14.65961         0.158845      0.708196      0.257149
O       9.29535     11.17974      6.58569         0.563064     -0.250814     -0.255622
O       9.22466     11.25680     10.71276         0.188362      0.050326     -0.535678
