  # total energy = -7881.64658582 
CRSYTAL
PRIMVEC
    15.3600000000000000    0.0000000000000000    0.0000000000000000
     0.0000000000000000   15.3600000000000000    0.0000000000000000
     0.0000000000000000    0.0000000000000000    17.440000000000000
PRESSURE
1.77667 1.2277 -2.27084 0.282799 0.206346 -0.01786
PRIMCOORD
320 1
Pb       3.94089      3.78379      4.34052        -0.698480     -0.282343      0.216555
Pb       3.84098      3.80055     17.42286         0.006289      0.127622      0.145592
Pb       3.80817      0.02017      4.36386        -0.179256     -0.312321      0.072047
Pb       3.85829     15.30966     17.31185        -0.718049     -0.295275      0.509498
Pb       0.05257      3.85033      4.31503        -0.208792     -0.140119     -0.388056
Pb      15.35479      3.77668     17.40498        -0.222799     -0.143137      0.723851
Pb       0.03239      0.01189      4.37425         0.268136     -0.114566     -0.367688
Pb      15.27321      0.09769     17.34116         0.613602     -0.658710      0.533355
Pb       3.74843      3.90269      8.60121        -0.017666     -0.435887      1.363302
Pb       3.70909     15.25844      8.69869        -0.073517      0.915484      0.734035
Pb      15.19553      3.90497      8.67989         0.927905     -0.526787      0.434653
Pb      15.30335     15.27283      8.69862         0.323166      0.088631      0.602128
Pb       4.03440      3.71870     12.97551        -0.960636      0.649815      0.534882
Pb       3.84633     15.34793     12.97205        -0.191255     -0.223313     -0.241354
Pb       0.01297      3.78337     13.00806        -0.108558      0.071750      0.301478
Pb      15.26433     15.20090     13.00296         0.167992      1.103787      0.539555
Pb       3.85752      7.69711      4.29924        -0.180763      0.182834      0.294928
Pb       3.78378      7.70146      0.02191         0.135072     -0.272677      0.229359
Pb       0.03706      7.63792      4.26784        -0.026295     -0.038482      0.247360
Pb       0.12659      7.68274      0.03805        -0.281421     -0.262173     -0.181703
Pb       3.71970      7.63926      8.63111         0.607013      0.172569      0.178869
Pb      15.18731      7.68415      8.66907         0.937942      0.351565      0.285554
Pb       3.88756      7.60115     13.09713        -0.318729      0.014386      0.145382
Pb       0.00080      7.68542     13.03322        -0.567988     -0.297240     -0.044506
Pb       3.82786     11.47614      4.37044         0.029116      0.514425     -0.196473
Pb       3.77985     11.50424     17.39828         0.075943      0.615601     -0.222990
Pb       0.05551     11.55344      4.23209         0.034045      0.083079      0.765921
Pb      15.23347     11.44510      0.02886         0.520312      0.586434     -0.348860
Pb       3.84518     11.43157      8.69084        -0.024360      0.642318      0.371093
Pb       0.03177     11.51025      8.71145        -0.170377      0.231873     -0.218986
Pb       3.85623     11.36667     12.92194         0.545096      0.765609      0.641998
Pb       0.08060     11.41197     13.01360        -0.796790      0.122303      0.142720
Pb       7.64709      3.81892      4.18491         0.188770      0.045438      1.441640
Pb       7.70252      3.74832      0.05158         0.425087      0.233972     -0.614255
Pb       7.63278     15.27678      4.36584         0.219358      0.166807      0.780765
Pb       7.53569     15.31268     17.40998         0.024900      0.115949     -0.299114
Pb       7.48924      3.91251      8.59123         0.684445      0.161209      1.059016
Pb       7.65665      0.10892      8.70480         0.010818     -0.234832      0.343036
Pb       7.71262      3.85060     13.00081         0.033522     -0.442482     -0.327384
Pb       7.71540      0.00899     12.93548        -0.156138     -0.254544      0.033291
Pb       7.69751      7.66301      4.30981        -0.099222     -0.195246      0.175596
Pb       7.58130      7.68109      0.00763         0.134328     -0.225904     -0.043769
Pb       7.74621      7.62417      8.72077        -0.530813      0.322696     -0.280668
Pb       7.71516      7.67966     13.12993         0.550476      0.394021     -0.025688
Pb       7.64392     11.38680      4.33405        -0.301110      0.455428      0.223243
Pb       7.54946     11.62847     17.23479        -0.297650     -0.667886      0.662388
Pb       7.82581     11.52436      8.76270        -0.874615      0.017369     -0.494433
Pb       7.69526     11.62170     12.95600         0.047534     -0.068431      0.457435
Pb      11.52568      3.72482      4.26469         0.255984     -0.214143      0.812597
Pb      11.56392      3.83993      0.10933        -0.729840     -0.211806     -0.339566
Pb      11.65265     15.32580      4.35855        -0.303404      0.207137      0.137823
Pb      11.29526     15.28767      0.00897         0.426153      0.339036      0.059142
Pb      11.54620      3.83157      8.60300        -0.254892     -0.165985      0.321035
Pb      11.42887      0.05860      8.67368         0.107305     -0.005818      0.007386
Pb      11.45162      3.78042     12.99916         0.266684      0.577174      0.390115
Pb      11.40123     15.29149     13.12114         0.418411      0.188231     -0.174297
Pb      11.57096      7.51704      4.30283         0.076302      0.457390      0.293627
Pb      11.38217      7.74774     17.39800         0.345056     -0.738079      0.122491
Pb      11.58905      7.70075      8.62454        -0.094825     -0.184789      0.229505
Pb      11.40713      7.54556     13.16654         0.796704      0.635847     -0.573434
Pb      11.43774     11.51668      4.23356         0.613767      0.154244      0.695011
Pb      11.43709     11.52365     17.35927         0.361277      0.132743      0.849834
Pb      11.35358     11.40861      8.71717         1.215724      0.424287      0.154206
Pb      11.58797     11.48601     13.06298        -0.241437     -0.474497      0.083140
Ti       1.95162      1.90253      2.36244        -1.004659     -0.678617     -0.428608
Ti       1.95163      1.95124     15.37853        -1.646618     -0.874787      0.683216
Ti       1.96759     13.39975      2.24324         0.132504      0.587707     -0.191469
Ti       1.91611     13.48485     15.29021        -0.484145      0.007619      0.519599
Ti      13.44605      1.86789      2.27686         0.229139      0.356912      1.256178
Ti      13.30146      1.88706     15.47642         0.712245     -0.769147     -1.097549
Ti      13.46285     13.40573      2.36579         0.350094      0.726720     -1.421464
Ti      13.45679     13.34008     15.47798         0.406575      1.512157     -0.723451
Ti       1.85334      1.99040      6.71669         0.555813     -0.741550      0.026085
Ti       1.94182     13.49601      6.69527        -1.170942     -0.238871     -0.792283
Ti      13.48585      1.85503      6.68295        -1.084506      0.360834     -0.603598
Ti      13.38048     13.40386      6.75783         0.116741     -0.333571     -1.144673
Ti       1.87420      1.99832     11.02228        -0.901238     -0.951913     -2.044015
Ti       1.90978     13.42844     11.15287        -0.085008      1.361768     -1.231898
Ti      13.35713      1.93792     11.05854         0.400749     -1.104790     -1.277129
Ti      13.43201     13.47172     11.14190        -0.416295     -0.565091     -1.116646
Ti       1.96115      5.77487      2.35877        -1.990913     -0.552859     -1.227083
Ti       1.87891      5.71242     15.50440        -0.113748      0.544223     -1.213337
Ti      13.41610      5.70548      2.36622         0.990846     -0.346204     -0.119959
Ti      13.37061      5.68917     15.55428        -0.090533      0.661945     -1.521337
Ti       1.86188      5.78645      6.66680        -0.267682      0.226655     -0.474434
Ti      13.48561      5.68948      6.65657        -0.798295      0.910171     -1.186819
Ti       1.93228      5.84608     11.01243        -1.245290     -1.343193     -1.291007
Ti      13.44886      5.71066     11.01374        -0.643796      1.182482      0.127910
Ti       1.96247      9.59681      2.27346         0.582925     -0.065272      0.265435
Ti       1.97493      9.63006     15.40890        -0.580410      0.588179      0.074289
Ti      13.49262      9.66548      2.32280         0.185862     -0.996761      0.198709
Ti      13.39819      9.51814     15.46947         0.600926      0.206685     -0.282941
Ti       1.96538      9.64358      6.59619        -1.069857     -0.016744      0.283327
Ti      13.47652      9.63000      6.66762         0.162204     -0.101284     -1.521963
Ti       1.98644      9.58441     11.00627        -1.004440     -0.326825     -1.494652
Ti      13.41085      9.58421     11.02665        -1.100850     -0.107311      0.633860
Ti       5.79417      1.89825      2.36877        -1.121722     -0.874663     -0.835189
Ti       5.70403      1.85516     15.37096         1.500860      0.335319     -1.425361
Ti       5.69644     13.48801      2.34371        -0.413656     -0.337722     -0.820876
Ti       5.69659     13.36231     15.25372        -0.365638      0.317514     -1.556079
Ti       5.70080      1.94340      6.78742        -0.543151     -0.382477     -1.759940
Ti       5.73544     13.50690      6.84231         0.057079     -0.719434     -0.336720
Ti       5.72749      1.91788     11.01122         0.637370     -0.122332     -1.160483
Ti       5.75271     13.39252     10.96866         0.489006      0.258251     -0.798785
Ti       5.69492      5.76049      2.40055         0.828823     -0.128534     -0.974899
Ti       5.72466      5.70789     15.41073         0.257182     -0.342945      0.415045
Ti       5.63204      5.77318      6.59075         0.884486      1.348268     -0.210130
Ti       5.73555      5.83415     11.07606         0.277689     -0.383974     -1.905851
Ti       5.79197      9.67688      2.34726        -1.132531     -0.511369     -0.778030
Ti       5.70277      9.48909     15.38127         1.290934      0.695726     -0.171591
Ti       5.76065      9.65979      6.71594         0.280391     -0.981495      0.125114
Ti       5.78251      9.49960     10.93274        -0.064837      0.843652     -1.165055
Ti       9.53524      1.85442      2.43361         1.425414     -0.003412     -2.082025
Ti       9.48280      1.84482     15.36125         0.486422      1.361686      0.517154
Ti       9.52913     13.40403      2.39004         0.783437      0.735756     -1.707484
Ti       9.58044     13.41015     15.45576        -0.490596     -0.618523     -2.237022
Ti       9.50469      1.98211      6.74100         1.174108     -0.830622     -1.204027
Ti       9.48509     13.44643      6.70432         1.214974      0.897021      0.255453
Ti       9.61285      1.95416     11.04479        -0.339470     -0.392254     -1.319026
Ti       9.70327     13.39093     10.98026        -1.168018      0.594355      1.481527
Ti       9.54620      5.69420      2.36713         0.294133      0.725777     -2.041862
Ti       9.56753      5.82343     15.43326        -0.154444     -1.274400      0.265201
Ti       9.54882      5.76950      6.74256         0.475590     -0.179803     -0.811446
Ti       9.58989      5.80579     10.93712         1.197665     -0.253970      0.087600
Ti       9.67759      9.60757      2.28184        -0.619747     -0.547668     -0.368789
Ti       9.59797      9.66726     15.51507        -1.016641     -1.071818     -1.931122
Ti       9.59636      9.56790      6.62004        -0.006405      0.165260      0.700570
Ti       9.51632      9.57956     11.07175         2.457167     -0.119220      0.530721
O       1.91643      1.74378      0.61182         0.442241      0.852019      0.202961
O       1.87190      1.99335     13.63229         0.112319      0.007681      0.282440
O       2.03005     13.43787      0.47437         0.085596     -0.273859      0.549436
O       1.84623     13.55381     13.47882         0.435893     -0.412930      0.241184
O      13.30436      1.88557      0.54701         0.148157     -0.049861     -0.939756
O      13.44740      1.89890     13.68648        -0.481739      0.258927      0.919605
O      13.58861     13.33218      0.57770        -0.428386     -0.026735      0.477374
O      13.32297     13.39370     13.69650         0.243348     -0.091495      0.117094
O       1.76314      1.88509      4.90568         0.640471      0.303059      0.694718
O       1.88020     13.47911      4.91185         0.384761     -0.280778      0.921573
O      13.40049      1.86374      4.85948         0.181070     -0.135392      1.581400
O      13.46777     13.49316      4.94358        -0.370920     -0.198087      0.542104
O       1.94083      1.96046      9.16234        -0.250554     -0.008842      2.259348
O       1.74274     13.52470      9.37365         0.627178     -0.087021      0.076928
O      13.30222      1.98879      9.22118        -0.045728     -0.055974      1.003658
O      13.47622     13.40534      9.39289        -0.182072      0.102775     -0.679337
O       1.97428      5.79239      0.54766         0.111637      0.100378      0.069615
O       1.80970      5.75936     13.70367         0.130639     -0.060683      1.126521
O      13.26354      5.71097      0.61601         0.056668      0.126788     -0.278378
O      13.34764      5.73500     13.76409         0.313363     -0.166494      0.418802
O       1.78079      5.80688      4.87152         0.238872     -0.224075      0.707384
O      13.56994      5.57065      4.87151        -0.283582      0.819428     -0.043384
O       1.84225      5.79860      9.19479         0.287403      0.166467      1.225487
O      13.48874      5.84411      9.21479        -0.064854     -0.590493      0.813431
O       2.05277      9.48843      0.49561        -0.296380      0.299057     -0.555273
O       1.97247      9.72906     13.63206         0.000009     -0.711202      0.000778
O      13.51723      9.63134      0.53508        -0.173102      0.064110      0.616467
O      13.38517      9.62086     13.73089         0.517394     -0.128492     -0.154368
O       1.92922      9.70548      4.77712         0.197593     -0.255046      1.607578
O      13.49739      9.64050      4.84067        -0.181910     -0.041501      1.047243
O       1.95583      9.52656      9.20563         0.014635      0.430206      1.512617
O      13.44819      9.58107      9.26085         0.005470      0.001270     -0.232922
O       5.74743      1.80238      0.55932         0.138397      0.100344      0.838427
O       5.84113      2.01483     13.52045        -0.458006      0.038985      1.015937
O       5.62342     13.55322      0.52868         0.375262     -0.240476      1.077391
O       5.74889     13.29809     13.40731        -0.213133      0.392174      1.492281
O       5.72569      1.96422      4.90511        -0.160851      0.206268      1.597114
O       5.68402     13.43084      5.07381         0.371883      0.008367      0.057636
O       5.79534      1.98801      9.19212        -0.182402     -0.254565      1.308496
O       5.84978     13.54939      9.13757        -0.478526     -0.461463      1.454656
O       5.89449      5.73578      0.61567        -0.815116     -0.058904      0.908962
O       5.58565      5.72207     13.59464         0.730309      0.233584      0.712881
O       5.88890      5.65636      4.79878        -0.807046     -0.024580      0.849136
O       5.67241      6.02060      9.29023         0.211047     -0.501372      1.119555
O       5.78644      9.60982      0.57542        -0.045009     -0.017127      0.437124
O       5.63125      9.44393     13.59285         0.137440      0.177528      0.728046
O       5.72345      9.72565      4.92004         0.091712     -0.168272     -0.137978
O       5.70808      9.37073      9.10828         0.302033      0.494833      1.743049
O       9.49683      1.86991      0.56663         0.160018     -0.551309      1.530460
O       9.55631      1.94266     13.58938        -0.354463     -0.053645     -0.196731
O       9.67671     13.44538      0.54738        -0.983998      0.036088      1.075102
O       9.59827     13.29728     13.63015        -0.140802      0.368394      1.007140
O       9.59293      1.93948      4.93549        -0.304194      0.319797      0.397603
O       9.48760     13.51833      4.95600        -0.013129     -0.660182     -0.910865
O       9.64674      1.78576      9.23638        -0.091017      0.470407      0.784346
O       9.77159     13.43377      9.25503        -0.676615     -0.241139     -0.948712
O       9.56192      5.77243      0.51785         0.075705      0.026788      1.557518
O       9.71854      5.86549     13.63284        -0.982641     -0.446349      0.661058
O       9.47461      5.58650      4.96219         0.165930      0.594231      0.518461
O       9.75360      5.91257      9.17879        -0.565456      0.060982     -0.191030
O       9.69169      9.63079      0.47768        -0.282106     -0.225475      1.066296
O       9.49316      9.54757     13.73327         0.111081      0.146662      0.001658
O       9.54320      9.62406      4.87221         0.086048      0.145447     -0.402958
O       9.77051      9.60030      9.32489        -0.946578      0.009741     -0.482372
O       3.83124      1.95155      2.81516         0.311946     -0.468052     -0.183240
O       3.83670      1.89573     15.75198        -0.142022      0.565887     -0.049072
O       3.86098     13.44162      2.87443         0.375629      0.161380     -0.383772
O       3.83185     13.45951     15.75489         0.211009      0.415148     -0.386053
O      15.33312      1.82204      2.69525         0.581617      0.194615     -0.009402
O       0.00839      1.94595     15.90509        -0.278500      0.199320     -0.425058
O       0.12119     13.37837      2.69525        -1.480024     -0.218140      0.002122
O       0.05630     13.46242     15.73108        -0.640674     -0.764383     -0.001179
O       3.78636      1.95298      7.21039         0.653322      0.053682     -0.883400
O       3.82408     13.51357      7.17852        -0.021239     -0.431547     -0.110550
O      15.35027      1.92047      7.08069        -0.731868      0.248086     -0.045031
O      15.35327     13.47012      7.07139        -0.321389      0.097202      0.372150
O       3.77238      2.04235     11.44815         1.231354     -0.752653     -0.421580
O       3.86577     13.58704     11.28929        -0.400397     -0.458419      0.287236
O      15.24112      1.83478     11.26002         0.822001      0.452114      0.566755
O      15.31550     13.50976     11.33989         0.447855     -0.492440      1.093041
O       3.73596      5.79849      2.77308         2.388348     -0.243374      0.222098
O       3.85425      5.65269     15.86149         0.066609     -0.270346     -0.103604
O       0.03728      5.73049      2.64584        -1.095718      0.346266      0.329974
O      15.28587      5.67158     15.96402         0.379752      0.795267     -0.252013
O       3.72535      5.70267      7.04697         1.214840      0.231098     -0.451322
O      15.34608      5.74346      7.06445         0.651431     -0.087795      0.271261
O       3.75044      5.82835     11.41726         1.327494     -0.113251      0.155981
O       0.03445      5.72123     11.42164        -1.503185      0.309139      0.232581
O       3.84661      9.39417      2.70351         0.686486      0.701580      0.089863
O       3.92215      9.60441     15.86165        -1.650736     -0.331526     -0.093720
O       0.13007      9.80835      2.58436        -2.185707     -0.521685     -0.022055
O       0.06276      9.52837     15.83242         0.108970      0.090491     -0.098274
O       3.82095      9.77149      7.16534        -0.471289     -0.706236     -1.069972
O       0.01085      9.64965      7.09869         0.931543     -0.140399     -0.279764
O       3.89957      9.65869     11.34176        -0.858419     -1.052504     -0.050518
O      15.31342      9.64823     11.42828         1.113006     -0.137317      0.187740
O       7.66997      1.81430      2.70396        -0.412825      0.382349      0.155494
O       7.64254      1.75414     15.79349        -0.345576     -0.271105      0.146365
O       7.62275     13.48120      2.73176         0.641503     -0.257080     -0.056017
O       7.54454     13.44442     15.69818         0.769468     -0.215795      0.450401
O       7.59894      2.01570      7.12240         0.343946      0.062470     -0.036805
O       7.63642     13.55751      7.21579         0.599839     -0.885918     -0.248590
O       7.65918      1.96135     11.41781         0.097305     -0.055378      0.073897
O       7.69362     13.38761     11.32199         0.040140      0.302496      0.125122
O       7.70638      5.68167      2.72278        -0.911595      0.519123      0.084933
O       7.61853      5.86892     15.89677        -0.002251     -0.281510     -0.851771
O       7.61741      5.92231      7.13797        -0.061193     -0.642905     -0.260297
O       7.73784      5.79239     11.23583        -0.987206      0.218950      0.705580
O       7.61272      9.58383      2.76676         1.223009     -0.210142     -0.121711
O       7.65423      9.58361     15.76845        -0.982182     -0.118120      0.436519
O       7.66665      9.56229      7.09049         0.548549      0.115004     -0.060872
O       7.63215      9.62444     11.37980         0.055329     -0.419340     -0.030477
O      11.52930      1.93258      2.74247        -0.389189      0.040572     -0.060235
O      11.39839      1.78940     15.85232         0.381639      0.216687     -0.249032
O      11.49284     13.32770      2.57500         0.113074      0.401172      0.806553
O      11.43821     13.27480     15.85783         0.929812      0.622615     -0.182092
O      11.47623      2.04093      7.10330         0.255055     -0.630728     -0.360608
O      11.42749     13.38798      7.08016         1.041287      0.435381     -0.199187
O      11.42989      1.91037     11.56149         0.735591     -0.072742     -0.186094
O      11.49364     13.42384     11.40694         0.316480     -0.146743      0.593689
O      11.51107      5.61353      2.84885        -0.066515      0.849981     -0.353858
O      11.38500      5.60867     15.87309         0.416567      0.510696      0.172249
O      11.59218      5.88696      6.93803        -1.058079     -0.448012      0.160356
O      11.48628      5.72056     11.42930         1.129515      0.119669      0.039756
O      11.51689      9.65729      2.72597        -0.018620     -0.328446     -0.346675
O      11.53067      9.67504     15.75082        -0.517158      0.133166      0.603082
O      11.53220      9.52175      7.08812        -0.009939      0.582042     -0.486386
O      11.47075      9.54917     11.46468         0.320798      0.698953      0.108588
O       1.85815      3.86367      2.69534         0.547437     -0.810892      0.045938
O       1.81874      3.83964     15.96313         1.087587     -0.548705     -0.460010
O       1.98424     15.26173      2.77049        -0.029592      1.077937      0.018774
O       1.81713     15.33661     15.94608         1.018611      0.830004     -1.337838
O      13.52127      3.80051      2.68493        -0.384988      0.089334     -0.001071
O      13.34753      3.79889     15.88770        -0.060936     -0.333905      0.266586
O      13.47342     15.34725      2.76531        -0.484461     -1.075876     -0.204632
O      13.53294     15.30819     15.78121        -1.033538      0.133170      0.172413
O       1.96365      3.86152      7.23446        -1.203596      0.101112     -1.343589
O       1.88767      0.05482      7.12777         0.164450     -0.365623     -0.170268
O      13.44326      3.84346      7.03139         0.081464     -0.657891      0.332059
O      13.39980     15.35110      7.21252        -0.156022      0.232766     -0.760912
O       1.78799      3.84446     11.47686         0.588859      0.164040     -0.378053
O       1.87251      0.05399     11.55004         0.457021      0.188856     -0.352076
O      13.38630      3.76617     11.44433         0.074558      1.670921      0.027217
O      13.32379      0.03393     11.54956        -0.187739     -0.647478     -0.147998
O       1.83463      7.68637      2.71989         0.068786      0.311024     -0.000061
O       2.00126      7.64993     15.81601        -0.146586      0.203444     -0.038983
O      13.55176      7.72574      2.76560        -0.771425     -0.070095     -0.357409
O      13.22723      7.63522     15.83407         0.643204      0.119188      0.278212
O       2.01069      7.72155      7.03570        -0.562142      0.338229     -0.754613
O      13.57449      7.65310      7.07404        -0.571032      0.551318     -0.462140
O       1.79724      7.70487     11.47357         0.687664      0.436955     -0.041794
O      13.36007      7.68892     11.42679         0.828546     -1.038501      0.091873
O       2.07093     11.48355      2.62450         0.355821      0.216028      0.104540
O       2.09049     11.60759     15.63776        -0.577366     -1.625875      0.436621
O      13.36481     11.53862      2.76421         0.641234     -0.456828      0.025009
O      13.50669     11.50511     15.84109        -0.012703     -0.635583      0.309052
O       1.91517     11.62526      7.17351         0.174986     -1.025259     -0.348657
O      13.50212     11.49432      7.03500        -0.445306      0.426717      0.360112
O       1.99597     11.50610     11.37660        -0.437231     -0.153376      0.170189
O      13.41178     11.49387     11.56349         0.133798      0.348498     -0.218625
O       5.61998      3.77595      2.73322         0.775210      0.479709     -0.347931
O       5.92568      3.72764     15.84571        -0.869413      1.067306     -0.234890
O       5.82958     15.33090      2.88759        -0.955049      0.543395     -0.639671
O       5.71412     15.33651     15.65745        -0.109939     -0.066474      0.087985
O       5.70176      3.94377      7.16613        -0.038221     -0.397021     -0.627867
O       5.77166      0.08277      7.11120        -0.187106     -0.102111     -0.091550
O       5.86140      3.89919     11.35787        -0.708536     -0.017019      0.326073
O       5.77967      0.00832     11.47597        -0.078732      0.687583     -0.522163
O       5.74676      7.56731      2.84272         0.343764      0.986328     -0.311759
O       5.66294      7.62381     15.94883         0.251414     -0.106510     -0.883248
O       5.56996      7.66518      6.92612         0.027220     -0.121783     -0.189383
O       5.81663      7.70644     11.59093        -0.446818     -0.551747     -0.347048
O       5.67730     11.54945      2.70925         0.344122     -0.368860      0.042508
O       5.67079     11.51007     15.74371         0.301397     -0.242852     -0.034694
O       5.82703     11.47617      7.14502        -0.124201      1.192612      0.356891
O       5.72427     11.49622     11.31052         0.039186     -0.329957     -0.356564
O       9.50072      3.84536      2.61785         0.486690     -1.137110      0.418582
O       9.40319      3.74959     15.76947         0.080501      0.410080     -0.120364
O       9.72827      0.01310      2.84521        -0.779241     -0.854575     -0.462010
O       9.56743     15.21557     15.73563        -0.012780      1.293621      0.404850
O       9.53921      3.86218      7.20405        -0.110251      0.750160     -0.207333
O       9.52406      0.03167      7.06913         0.175703      0.226050      0.166294
O       9.69041      3.85667     11.22545        -0.722388      0.222820      0.677135
O       9.64591      0.01519     11.48708        -0.500722     -0.685738     -0.206095
O       9.64221      7.66074      2.80868        -0.076615      0.359986     -0.376640
O       9.57337      7.72759     15.81663         0.398625     -0.709645      0.280475
O       9.59365      7.73888      7.06305        -0.001233     -0.654587     -0.192062
O       9.68166      7.68869     11.57214        -1.199601     -0.104713     -0.508710
O       9.51017     11.50087      2.67270         0.004282     -0.251769      0.289205
O       9.47733     11.49473     15.87412         0.155473      0.724017      0.245518
O       9.64908     11.54655      7.16357        -1.111319     -0.929773     -0.430829
O       9.56332     11.49460     11.49532         0.180395     -0.011008     -0.654214
