  # total energy = -7867.12137442 
CRSYTAL
PRIMVEC
    15.010000000000000    0.0000000000000000    0.0000000000000000
     0.0000000000000000   15.010000000000000    0.0000000000000000
     0.0000000000000000    0.0000000000000000    16.400000000000000
PRESSURE
19.7662 19.7288 8.80615 0.286154 -0.194855 -0.027014
PRIMCOORD
320 1
Pb       3.81360      3.71486      4.13597        -0.360307      0.334509      0.272397
Pb       3.76442      3.74661      0.00940        -0.237648     -0.009750      0.480786
Pb       3.72565      0.02808      4.07849        -0.137542      0.115252      0.866223
Pb       3.76283     15.00516     16.36250        -0.111411      0.075961      0.404517
Pb      14.96049      3.70050      4.06453         0.717242      0.272784      0.940159
Pb      14.99896      3.70522     16.35072         0.142222      0.454038      0.984319
Pb      14.96973      0.00537      4.11024         0.401560     -0.279962      0.526261
Pb      14.95776     14.98451     16.39001         0.219701      0.267203      0.355468
Pb       3.75408      3.70575      8.20706         0.052505     -0.010939      0.227579
Pb       3.76746     14.97370      8.20054        -0.139022     -0.085821      0.432004
Pb      15.00220      3.73704      8.20116         0.089316      0.027291      0.617700
Pb      14.97128     14.95410      8.15752         0.088190      0.671948      0.893321
Pb       3.76566      3.72247     12.24777        -0.187458      0.074665      0.904421
Pb       3.74161     15.00447     12.31957        -0.070063     -0.100408      0.589112
Pb      14.99505      3.71321     12.27183         0.319007      0.230299      1.132655
Pb      15.00447     15.00226     12.26814        -0.392104      0.130212      0.515865
Pb       3.68500      7.52049      4.06243        -0.085225     -0.623798      0.618127
Pb       3.75087      7.46419      0.03781        -0.372661      0.017696      0.233278
Pb      14.96658      7.48534      4.07083         0.564919      0.162281      0.799928
Pb      14.98326      7.49141     16.39913         0.141618      0.295546      0.468277
Pb       3.72366      7.52504      8.12897         0.002297     -0.477548      0.761530
Pb      14.99425      7.50643      8.17324         0.048516     -0.014837      0.685640
Pb       3.73676      7.51171     12.27000         0.393401      0.051228      0.872049
Pb      15.00935      7.43505     12.27605        -0.166060      0.702988      0.641166
Pb       3.69244     11.22197      4.09379         0.069879      0.187704      0.758009
Pb       3.73715     11.16764     16.34199         0.160170      0.464797      0.932393
Pb      14.98044     11.22293      4.06451         0.392625      0.212764      1.062538
Pb      14.97360     11.29390      0.00413         0.243073     -0.922377      0.031368
Pb       3.72005     11.18539      8.18078        -0.124125      0.557656      1.097925
Pb      14.98554     11.21212      8.15009         0.453229     -0.169945      1.340896
Pb       3.74636     11.25369     12.29062        -0.272985     -0.034904      0.592768
Pb      15.00523     11.25357     12.28395        -0.581056     -0.455204      0.351112
Pb       7.49588      3.72494      4.08353        -0.453091      0.060085      0.447457
Pb       7.48541      3.77239     16.35622         0.352661     -0.075987      0.978269
Pb       7.48288     14.94819      4.10924         0.206524      0.207762      0.188978
Pb       7.42950     14.99146     16.36221         0.544156     -0.003313      0.938726
Pb       7.49247      3.70675      8.18461         0.054346      0.281334      0.758385
Pb       7.48753     15.00553      8.19648         0.332896     -0.588625      0.707049
Pb       7.47154      3.72360     12.26672         0.129075      0.144587      0.507964
Pb       7.51743     14.94558     12.30473        -0.310077      0.475634      0.580744
Pb       7.42185      7.49953      4.02940         0.400837     -0.149663      1.342853
Pb       7.47089      7.46582     16.38243         0.612416      0.069024      0.595618
Pb       7.48503      7.49120      8.21810        -0.224145     -0.106128      1.077000
Pb       7.51492      7.47793     12.32934        -0.236614     -0.471640      0.640019
Pb       7.48553     11.27005      4.05626         0.020862     -0.151951      0.911334
Pb       7.50110     11.24301     16.38371        -0.107402      0.471892      1.556156
Pb       7.46379     11.22459      8.17678         0.498907      0.268610      0.914905
Pb       7.50887     11.21524     12.28079        -0.403101      0.378138      0.774631
Pb      11.21922      3.73964      4.07761        -0.324107     -0.202082      0.683198
Pb      11.27117      3.76492     16.35695        -0.439423     -0.084181      1.295349
Pb      11.30412     14.97576      4.11010        -0.804897      0.233121      0.433635
Pb      11.20341     14.94865     16.39503        -0.496874      0.410646      0.749575
Pb      11.31190      3.73039      8.15127        -0.598157      0.434930      0.520620
Pb      11.27615     14.95374      8.18500        -0.543036      0.372414      0.489267
Pb      11.27640      3.71411     12.22673        -0.573684      0.666647      1.828448
Pb      11.25638      0.03277     12.26466         0.350685     -0.639706      0.868536
Pb      11.24159      7.47177      4.09099        -0.165866      0.437512      0.526968
Pb      11.20768      7.47075      0.00604        -0.331155      0.056115      0.621113
Pb      11.19371      7.46830      8.16713         0.297499      0.159178      0.872688
Pb      11.25185      7.43680     12.26296         0.084624      0.208554      1.205367
Pb      11.26424     11.24640      4.08063        -0.650686      0.394864      0.926574
Pb      11.23144     11.21187     16.38018        -0.064208      0.136913      1.017075
Pb      11.20004     11.22951      8.19817        -0.301175     -0.063006      0.746631
Pb      11.21828     11.26011     12.25299         0.582947     -0.035456      1.109763
Ti       1.86699      1.86589      2.22385         0.839678      0.459749     -1.283544
Ti       1.89499      1.87728     14.56302         0.154693      0.006996     -1.563872
Ti       1.84604     13.08901      2.13859        -0.382533      0.714973     -0.494442
Ti       1.80957     13.13189     14.47774         0.794502      0.044353     -0.843026
Ti      13.11381      1.89227      2.21254        -0.845283     -0.634114     -1.480974
Ti      13.11407      1.88019     14.49251         0.064609     -0.582510     -1.452925
Ti      13.12684     13.11565      2.17246        -0.384567      0.542268     -0.691662
Ti      13.09685     13.14028     14.55950        -0.723473     -0.537974     -2.121704
Ti       1.87156      1.86426      6.33028        -0.195558      0.042889     -1.449466
Ti       1.85893     13.10681      6.29153         0.449384      0.232517     -1.145203
Ti      13.06895      1.88122      6.28022         0.708600      0.260217     -0.625479
Ti      13.13012     13.08286      6.30877        -0.332490      1.565869     -1.417107
Ti       1.83871      1.84568     10.38357        -0.006633      0.713493     -0.207568
Ti       1.83034     13.11842     10.34371         0.370252     -0.045954     -0.278507
Ti      13.04657      1.97345     10.38044         1.105083     -2.648081     -0.618499
Ti      13.10917     13.12201     10.34271        -0.583970     -0.236420      0.140079
Ti       1.84495      5.60547      2.17495         0.647657      0.082941     -1.022735
Ti       1.83257      5.62976     14.41976         0.860758      0.323284      0.400663
Ti      13.12590      5.60122      2.27872         0.096224      0.818231     -1.935621
Ti      13.12333      5.63615     14.52144        -0.260841      0.214366     -1.053310
Ti       1.87538      5.57637      6.28172         0.081726      0.941072     -1.368116
Ti      13.13613      5.66414      6.25543        -0.175064     -0.564538     -0.039863
Ti       1.91056      5.61141     10.36539        -0.595167     -0.008115     -0.394293
Ti      13.13810      5.60999     10.36347         0.036878      0.830502     -0.563223
Ti       1.80656      9.37804      2.17562         0.625404     -0.683896     -1.277094
Ti       1.96062      9.39476     14.45858        -2.032429     -0.785072     -0.673494
Ti      13.08900      9.41273      2.24074        -0.463018     -1.114271     -1.076742
Ti      13.09417      9.38451     14.49340         0.699241     -0.277925     -1.532308
Ti       1.94320      9.36470      6.30069        -1.572786     -0.392313     -1.484792
Ti      13.13569      9.44264      6.32285        -0.372403     -2.304972     -0.808015
Ti       1.89797      9.34171     10.35622        -1.072675      0.346202     -0.457805
Ti      13.09431      9.32193     10.37851         0.697205      0.715756     -0.295930
Ti       5.63481      1.85071      2.08548        -0.516068      0.156383      0.021163
Ti       5.64149      1.91000     14.38893        -0.173156     -0.524288     -0.273655
Ti       5.53466     13.10076      2.21166         1.421591     -0.082487     -1.385915
Ti       5.60120     13.15102     14.52161         0.134796     -0.309569     -0.957966
Ti       5.68066      1.82728      6.28452        -1.457323      0.344889     -1.280244
Ti       5.61931     13.06664      6.30395        -0.031144      0.094543     -0.802739
Ti       5.59300      1.80993     10.41258         0.854182      0.181545     -0.431254
Ti       5.57563     13.04798     10.41576         0.407376      1.576341     -0.802781
Ti       5.62719      5.60508      2.17266        -0.133602      0.192631     -0.861760
Ti       5.64458      5.65426     14.55534        -0.310786     -0.205409     -1.437745
Ti       5.60101      5.62536      6.30863        -0.468340     -0.205443     -1.332972
Ti       5.61465      5.61852     10.29603        -0.116412      0.335726     -0.051435
Ti       5.56874      9.34208      2.22966         0.085870      0.722732     -0.908198
Ti       5.67462      9.42297     14.45501        -0.830991     -0.545184     -0.485208
Ti       5.62985      9.33512      6.28382         0.278347      0.310315     -1.074889
Ti       5.65065      9.35002     10.32352        -0.688850     -0.692589     -0.199745
Ti       9.33907      1.89793      2.21884         0.236855     -1.046803     -0.508024
Ti       9.39211      1.88446     14.42614        -0.613126     -0.064954     -0.428728
Ti       9.32515     13.13541      2.25078         0.627634      0.545449     -1.364495
Ti       9.33641     13.12840     14.46853         0.147917      0.643868     -0.032090
Ti       9.31646      1.91255      6.28535         1.651190     -1.127984     -1.426813
Ti       9.38526     13.09941      6.23485        -0.033783      1.289682     -0.528422
Ti       9.38570      1.85895     10.35871        -1.200391      0.107834     -0.272332
Ti       9.34717     13.12454     10.38474        -0.299728      0.023126     -1.143709
Ti       9.36593      5.64181      2.25178         0.006911     -0.464837     -1.849691
Ti       9.40395      5.58198     14.44629        -1.074042      1.181580     -0.127200
Ti       9.27760      5.68316      6.26468         1.032048     -1.288151     -0.905943
Ti       9.34743      5.59551     10.32878         0.355844     -0.090197     -0.336581
Ti       9.30187      9.37420      2.21310         0.410151      0.657366     -0.757287
Ti       9.33698      9.44565     14.49566         1.062038     -1.605456     -0.795735
Ti       9.30257      9.32892      6.31342         0.478906      1.300228     -1.723549
Ti       9.36740      9.31806     10.46071         0.516844      0.720754     -1.235076
O       1.98052      1.84477      0.35852        -0.483762      0.119462      0.852569
O       1.90712      1.91536     12.70122        -0.254900     -0.284837      0.738344
O       1.76034     13.06968      0.29495         0.148519      0.408245      1.273551
O       1.77679     13.14390     12.61885         0.243389     -0.191284      0.853563
O      13.02425      1.76894      0.33705         0.600060      0.351451      0.953962
O      13.01631      1.74701     12.62421         0.650182      0.749802      1.058086
O      13.37331     13.04878      0.31373        -1.158054      0.750361      0.707667
O      12.93434     12.92216     12.72617         0.864591      1.198896      0.057222
O       1.82279      1.92034      4.45331         0.041433     -0.266774      1.162356
O       1.80854     13.14089      4.45782         0.047298     -0.195339      0.739110
O      13.11397      1.96338      4.44583         0.021232     -0.254649      0.480651
O      13.06013     13.07654      4.45052         0.361225      0.255074      1.301331
O       1.84996      1.89923      8.58518         0.097008     -0.125342     -0.412337
O       1.92270     13.15997      8.52250        -0.462607     -0.136301      0.905510
O      13.05114      1.85608      8.57234        -0.002739      0.206779      0.364489
O      13.16729     13.08047      8.53156        -0.430394      0.152145      0.213566
O       1.80626      5.75826      0.34760        -0.008325     -0.714381      0.946882
O       1.87234      5.64299     12.60157        -0.013877     -0.327116      1.254273
O      13.11402      5.63997      0.44463         0.076774     -0.157001     -0.103364
O      13.08509      5.55174     12.70061         0.322498      0.407943      0.706537
O       2.03911      5.54621      4.44342        -0.850334      0.313986      0.551188
O      13.17527      5.62841      4.40395        -0.458599     -0.058507      1.433821
O       1.83248      5.57369      8.53558         0.378599      0.431972      0.842924
O      13.13929      5.51534      8.57024        -0.058941      0.588046      0.575643
O       1.94872      9.35737      0.33922        -0.227299      0.061286      0.970611
O       1.83531      9.39847     12.61021         0.380137      0.165896      0.887304
O      13.05891      9.30024      0.42118        -0.012339      0.579767      0.695228
O      13.12399      9.32538     12.63885        -0.039371      0.096063      1.268251
O       1.76622      9.32099      4.47046         0.399737      0.529037      0.264181
O      13.08130      9.32794      4.47866         0.382149      0.315282      1.170475
O       1.98504      9.40787      8.49756        -0.538018     -0.583500      0.755894
O      13.03170      9.24788      8.56180         0.224669      0.895001      0.073669
O       5.58533      1.82064      0.27042        -0.061097      0.051587      1.143738
O       5.52088      1.79961     12.54834         0.385262      0.583045      1.521364
O       5.70138     13.10261      0.36184        -0.930596      0.170772      1.252835
O       5.53268     13.12598     12.69650         0.403880     -0.186838      0.072429
O       5.58873      1.97218      4.45608         0.473875     -0.504605      1.040726
O       5.69164     13.02850      4.48751        -0.698441      0.389084      0.557524
O       5.58011      1.84225      8.57619         0.269717     -0.020693      0.108899
O       5.64397     13.19195      8.58853        -0.088213     -0.234466      0.481340
O       5.80746      5.70510      0.31977        -1.046196     -0.214101      0.920028
O       5.72784      5.61218     12.71286        -0.404740      0.219313      0.735279
O       5.59142      5.63150      4.45488         0.066122     -0.285326      0.502640
O       5.45003      5.74154      8.48780         0.669268     -0.777849      0.991884
O       5.51902      9.37857      0.40548         0.269255      0.054463      0.618875
O       5.50736      9.36699     12.64565         0.616442      0.222391      0.601329
O       5.62438      9.27564      4.47337        -0.042917      0.585622      0.742108
O       5.66222      9.33105      8.50079        -0.547057     -0.023311      1.493591
O       9.36286      2.05623      0.44073         0.065537     -1.015954     -0.197450
O       9.35152      1.91973     12.59116         0.100834     -0.329010      1.919946
O       9.29493     13.18519      0.43523         0.363042     -0.053782      0.180764
O       9.34066     13.09902     12.65423        -0.085409      0.181352      0.548162
O       9.35491      1.81359      4.44106        -0.180993      0.607236      1.559709
O       9.52519     13.25106      4.39104        -0.526961     -0.773520      1.332772
O       9.35361      1.87282      8.55292         0.069589      0.002571     -0.022037
O       9.33851     13.13702      8.52944        -0.041248     -0.166948      1.165506
O       9.36172      5.59628      0.40007        -0.038445      0.156660      0.850900
O       9.34437      5.66277     12.63543        -0.163832     -0.510445      0.192569
O       9.31688      5.71318      4.40452         0.227935     -0.423846      1.264786
O       9.26230      5.69981      8.50278         0.586658     -0.492820      1.075576
O       9.40550      9.43571      0.38881        -0.166241     -0.192579      0.750861
O       9.44925      9.32181     12.68029        -0.883364      0.423278      0.151771
O       9.26004      9.36165      4.47558         0.258166     -0.184277      1.402506
O       9.26337      9.33850      8.60145         0.645131      0.318905      0.667796
O       3.71116      1.97978      2.57099         0.896996     -0.734518     -0.607864
O       3.78471      1.84983     14.77572        -0.278876     -0.053682     -0.142052
O       3.70216     13.07076      2.52172        -0.300631     -0.279198     -0.204979
O       3.74512     13.13147     14.73052        -0.848814      0.058612      0.248127
O      14.99810      1.92539      2.48171        -0.487009     -0.401572     -0.336680
O       0.00080      1.90256     14.79820        -0.443593     -0.130494     -0.151150
O      14.97967     13.15833      2.49942         0.906491      0.112386      0.035494
O      14.96715     13.16127     14.66218         0.624072     -0.249428      0.138062
O       3.79275      1.91629      6.52999        -1.207860      0.237200      0.254199
O       3.71790     13.04174      6.63222         0.264093      0.026104     -0.500960
O      14.96033      1.84117      6.61169         0.833702      0.171206     -0.178394
O      14.98624     13.17135      6.69742         0.113325     -0.506672     -0.843139
O       3.70856      1.80974     10.69989         0.178600      0.656197     -0.472141
O       3.71432     13.14131     10.73065        -0.318321     -0.086932     -0.414792
O      14.96489      1.95132     10.81601        -0.336345     -0.678194     -1.006377
O      14.94674     13.12521     10.64670         0.535285      0.077084      0.031526
O       3.76992      5.66403      2.34924        -0.221722      0.015905      0.024011
O       3.70737      5.62993     14.94906         0.526678      0.062969     -1.075978
O      14.99002      5.54968      2.46349         0.322103      0.280127      0.254386
O      14.97769      5.62906     14.88172         0.133370     -0.185321     -0.756541
O       3.73549      5.53742      6.60936        -0.166042      0.287988     -0.155015
O      14.99522      5.74763      6.60368        -0.230164     -0.588165     -0.497905
O       3.76602      5.69911     10.77562        -0.139162     -0.615090     -0.806783
O       0.00265      5.59662     10.75932        -0.340337      0.012947     -0.664096
O       3.70337      9.42141      2.59857        -0.240383     -0.142332     -0.568891
O       3.77297      9.36043     14.77418         0.212172      0.158372     -0.167319
O      14.96884      9.37356      2.49367        -0.282137      0.028350     -0.140939
O       0.01179      9.36993     14.74790        -0.677682     -0.004530      0.053170
O       3.78282      9.37245      6.53137        -0.443084      0.136034     -0.048435
O       0.00834      9.29582      6.62663        -0.850350      0.383721     -0.195518
O       3.73175      9.37448     10.64695         0.589821     -0.166554     -0.180855
O      14.97783      9.29621     10.61311         0.356635      0.197136     -0.118684
O       7.45732      1.72418      2.54131        -0.684968      0.621968     -0.441618
O       7.48498      1.88044     14.76066         0.216072      0.199287     -0.467368
O       7.47759     13.11292      2.42969        -1.288288      0.475722      0.658912
O       7.48741     13.04357     14.89522         0.213892      0.371591     -0.985577
O       7.51678      1.83664      6.64108        -0.960629     -0.055954     -0.204644
O       7.52728     13.21646      6.53074        -0.735282     -0.360952     -0.019639
O       7.52295      1.80610     10.81718        -0.863549      0.484682     -0.985510
O       7.43059     13.17566     10.80386         0.410054     -0.573855     -0.601796
O       7.49785      5.57910      2.42389        -0.162667      0.445665      0.456787
O       7.53197      5.64884     14.82576        -0.563356     -0.533041     -0.424612
O       7.44903      5.63068      6.60443         0.472447     -0.035929     -0.161251
O       7.46752      5.72405     10.57309         0.838139     -0.592237      0.122783
O       7.44275      9.35801      2.59025         0.233151      0.187962     -0.846202
O       7.50181      9.44781     14.84744        -0.496517      0.155729     -0.509441
O       7.44271      9.32916      6.75150         1.082206      0.528741     -1.149754
O       7.47504      9.30249     10.73978         0.116118      0.374630     -0.147910
O      11.20404      1.90786      2.46985         1.081587     -0.182597      0.198467
O      11.23995      1.77560     14.70346        -0.340791      0.296077      0.248725
O      11.27462     13.02967      2.33428         0.037365      0.347413      0.149618
O      11.20305     13.19988     14.85155         0.068811     -0.152947      0.073810
O      11.21890      1.97994      6.55418         0.217957     -0.346698     -0.053711
O      11.25911     13.15617      6.69293         0.449404     -0.482214     -0.625946
O      11.20344      1.88146     10.86211         0.482616     -0.102307     -1.646155
O      11.19567     13.00400     10.66255        -0.208958      0.700421     -0.555391
O      11.25421      5.59985      2.39748        -0.677410      0.065864      0.793370
O      11.20238      5.63237     14.82238         0.782840     -0.025014     -0.229792
O      11.23698      5.62119      6.58493        -0.339665     -0.130593     -0.454901
O      11.27583      5.56418     10.76360        -1.068884      0.067731     -1.029037
O      11.18705      9.51976      2.64586         0.573480     -0.966782     -1.062991
O      11.17611      9.37656     14.82626         0.857708     -0.024423     -0.112485
O      11.22371      9.44394      6.58585        -0.193382     -0.397714     -0.160266
O      11.25024      9.42464     10.73781        -1.137645     -0.404745     -0.664900
O       1.85661      3.75813      2.47471        -0.001881     -0.171572     -0.333419
O       1.89961      3.74999     14.85981        -0.239335      0.431763     -0.319493
O       1.94417     14.99279      2.48571        -0.520735     -0.141637     -0.250101
O       1.86131      0.00845     14.85278        -0.111882     -0.658396     -0.436322
O      13.01964      3.74734      2.54395         0.610723     -0.697013     -0.455982
O      13.06959      3.74935     14.76197         0.192039     -0.234197      0.085451
O      13.12230     14.98754      2.58812         0.037822      0.567422     -0.785595
O      13.13490     14.99961     14.63195         0.181321      0.257302      0.750601
O       1.76787      3.77067      6.60885         0.213228     -1.232127     -0.093993
O       1.89335     14.98979      6.53978        -0.047860      0.553378      0.124926
O      13.18415      3.75593      6.74635        -0.198256      0.355860     -1.383391
O      13.18524      0.02660      6.55802        -0.758225     -0.820704     -0.167938
O       1.82002      3.75766     10.72607         0.663456      0.022098     -0.393926
O       1.86848      0.01869     10.66680        -0.555099     -0.837478     -0.072315
O      13.04935      3.74647     10.68914         0.400006      0.382459     -0.010222
O      13.05113     15.00838     10.58939        -0.023910     -0.288717      0.219440
O       1.82272      7.51318      2.42780         0.020192     -0.137160      0.365585
O       1.85030      7.49305     14.74558         0.143161      0.204030     -0.356575
O      13.14223      7.50527      2.59698        -0.558543      0.388427     -0.627896
O      12.99435      7.49235     14.88486         0.673983      0.024536     -0.676152
O       1.86401      7.49813      6.44016         0.527611     -0.236080      0.718765
O      13.05277      7.46853      6.79007         0.256227      0.517338     -1.475413
O       1.86072      7.48848     10.78185         0.038102     -0.105924     -0.931944
O      13.06251      7.46044     10.70747         0.116647     -0.292391     -0.289746
O       1.75710     11.23296      2.50295         0.399980      0.569433     -0.183574
O       1.85288     11.25437     14.89720         0.100516      0.156514     -1.120915
O      13.17838     11.28947      2.56108        -0.027036     -0.898140     -0.481691
O      13.07088     11.24979     14.73643         0.085809     -0.656740      0.576700
O       1.81035     11.22550      6.61723        -0.004420      0.435042     -0.369800
O      13.16148     11.25986      6.61144        -0.095553     -0.356790     -0.134758
O       1.79814     11.22525     10.61510         0.224235      0.624829     -0.056147
O      13.02107     11.21809     10.69129         0.903356      0.253695     -0.595434
O       5.61967      3.73643      2.36386         0.266472     -0.143021      0.145794
O       5.59217      3.74831     14.78406         0.012338      0.035260     -0.317843
O       5.49158     14.99992      2.52266         0.162987     -0.302622     -0.360522
O       5.65872     15.00984     14.75948        -0.139599      0.196316     -0.195967
O       5.64904      3.74839      6.64728         0.171573     -0.498924     -0.211101
O       5.46088     14.94473      6.54479         0.791243      0.716051     -0.176521
O       5.63954      3.75751     10.74550        -0.145347     -0.035275     -0.912654
O       5.64329      0.00399     10.72329        -0.394074     -0.957265     -0.362200
O       5.65263      7.50426      2.57433        -0.579446     -0.363151     -0.957408
O       5.65931      7.53413     14.78314        -0.072140      0.201317     -0.191045
O       5.63534      7.49874      6.59356        -0.429569     -0.246398     -0.281493
O       5.66667      7.48026     10.66511        -0.659896      0.511705     -0.058461
O       5.62099     11.22851      2.66166        -0.316768      0.130626     -0.955970
O       5.59216     11.28310     14.82698        -0.051728     -1.000647     -0.354202
O       5.57264     11.21339      6.79458         0.645319      0.386427     -1.382504
O       5.55787     11.22404     10.69937         0.502714     -0.377491     -0.268180
O       9.25733      3.72443      2.60079         0.551920      0.826015     -0.203297
O       9.34728      3.74446     14.94150         0.313955     -0.401455     -1.523717
O       9.36232      0.00539      2.62112         0.342194     -0.126787     -0.883171
O       9.28533      0.00871     14.90201         0.294088      0.248517     -0.779090
O       9.32997      3.78540      6.63035        -0.268660      0.003721     -0.470646
O       9.43315     15.00827      6.58288        -0.072164      0.398756     -0.033317
O       9.32040      3.69991     10.66606        -0.010812      1.739277     -0.327461
O       9.30985      0.01602     10.62821         0.519026     -1.295773      0.062055
O       9.39913      7.53338      2.49282        -0.011223     -0.454736     -0.235937
O       9.21969      7.51652     14.73701         0.735724      0.041900      0.098394
O       9.33182      7.50217      6.61120         0.202529      0.125101     -0.294558
O       9.44479      7.47321     10.70190        -0.251534     -0.204292     -0.296702
O       9.25129     11.27482      2.54440         0.514824     -0.612415     -0.147605
O       9.43026     11.31188     14.94044        -0.447158     -0.432303     -1.007942
O       9.34995     11.27411      6.51376        -0.180120     -0.681302      0.264098
O       9.19387     11.24714     10.76337         0.599839     -0.242420     -0.911633
