  # total energy = -7883.04973866 
CRSYTAL
PRIMVEC
    15.3600000000000000    0.0000000000000000    0.0000000000000000
     0.0000000000000000   15.3600000000000000    0.0000000000000000
     0.0000000000000000    0.0000000000000000    17.440000000000000
PRESSURE
1.74749 1.37634 -0.364685 0.450853 0.236731 -0.009742
PRIMCOORD
320 1
Pb       3.93358      3.78033      4.33483        -0.218223     -0.150450     -0.132518
Pb       3.83223      3.79725     17.40746        -0.005990      0.030163      0.419494
Pb       3.81585      0.01213      4.36737         0.107324     -0.050109      0.280761
Pb       3.86510     15.31635     17.30724        -0.548748     -0.035218      0.531482
Pb       0.04131      3.85593      4.30402         0.180446     -0.158362     -0.214960
Pb      15.34362      3.75973     17.39703        -0.472007      0.079672      0.689709
Pb       0.02094      0.00297      4.36777         0.005595     -0.203134     -0.205123
Pb      15.28560      0.09235     17.33987         0.555730     -0.466435      0.662658
Pb       3.74854      3.91635      8.59283        -0.107164     -0.155393      1.308433
Pb       3.70086     15.25831      8.70987         0.043427      0.907232      0.854389
Pb      15.22671      3.88666      8.68909         0.895375     -0.137998      0.504794
Pb      15.31940     15.27358      8.69078        -0.007442      0.157666      0.540458
Pb       4.03391      3.74622     12.96644        -1.137083      0.471474      0.443559
Pb       3.85531     15.34368     12.97692        -0.366854     -0.074038     -0.402867
Pb       0.00655      3.78947     13.00959         0.051772      0.273582      0.116131
Pb      15.26639     15.21445     13.00168         0.298954      1.237495      0.591602
Pb       3.86405      7.70398      4.29769        -0.056607     -0.128377      0.429420
Pb       3.77992      7.70969      0.01654         0.357231     -0.277385     -0.111418
Pb       0.01117      7.61608      4.26889         0.116149      0.272337      0.265623
Pb       0.14849      7.67740      0.02940        -0.627719     -0.091730     -0.433705
Pb       3.71939      7.63012      8.63083         0.453045      0.409707     -0.106382
Pb      15.18416      7.69798      8.67798         0.910201      0.221670      0.118159
Pb       3.87779      7.60542     13.10259        -0.195547      0.244712      0.043923
Pb       0.00575      7.68613     13.02754        -0.716398     -0.175390     -0.166751
Pb       3.83464     11.47030      4.37871         0.139661      0.458621      0.286922
Pb       3.75576     11.49124     17.39090         0.411826      0.232476     -0.480379
Pb       0.04346     11.55272      4.22259        -0.240974      0.114850      0.885095
Pb      15.23913     11.44151      0.04112        -0.161205      0.344356     -0.368613
Pb       3.84171     11.43265      8.69615        -0.344991      0.218189      0.148045
Pb       0.02902     11.51846      8.70830         0.101594     -0.062035     -0.521263
Pb       3.84632     11.37060     12.90259         0.331932      0.445110      0.653157
Pb       0.05701     11.40193     13.01734        -0.451594     -0.221992      0.180862
Pb       7.65316      3.82278      4.20372        -0.392148     -0.199520      1.168906
Pb       7.70159      3.73823      0.04097         0.168465      0.392445     -0.554035
Pb       7.63483     15.26850      4.35933         0.367629      0.172331      0.799622
Pb       7.54274     15.30072     17.41880         0.281270     -0.164868     -0.334091
Pb       7.49869      3.91116      8.58082         0.446338      0.306081      0.959997
Pb       7.65379      0.12456      8.68800         0.041173     -0.374614      0.408944
Pb       7.68347      3.84154     12.99544         0.190918     -0.275877     -0.246384
Pb       7.71641     15.34597     12.93288        -0.414513      0.371738      0.223900
Pb       7.68918      7.67836      4.30573         0.204833      0.076446      0.263478
Pb       7.58289      7.66546      0.00090         0.197449      0.046521      0.020440
Pb       7.74282      7.63463      8.71511        -0.311906      0.205895     -0.249341
Pb       7.70994      7.67248     13.13434         0.273150      0.435637     -0.191314
Pb       7.64431     11.38679      4.33087         0.083209      0.353455      0.032253
Pb       7.52731     11.62014     17.24135        -0.111124     -0.658392      0.662447
Pb       7.84320     11.51265      8.77044        -0.914271     -0.111882     -0.363720
Pb       7.67841     11.62529     12.96068        -0.014853     -0.929149      0.648262
Pb      11.53587      3.72239      4.26759        -0.059240     -0.148628      0.794529
Pb      11.53676      3.83038      0.09285        -0.309115     -0.057813     -0.745073
Pb      11.64464     15.33139      4.35695        -0.421757     -0.324614     -0.100051
Pb      11.31614     15.29569      0.00107         0.426267      0.276910      0.106415
Pb      11.55321      3.82370      8.60121        -0.441725      0.090510      0.550691
Pb      11.42900      0.05365      8.65398         0.212205     -0.244134      0.384952
Pb      11.44672      3.79586     13.00259         0.242962      0.610013      0.651088
Pb      11.39663     15.29625     13.12214         0.397423      0.372546     -0.296893
Pb      11.57080      7.52528      4.28749        -0.395907      0.942065      0.509382
Pb      11.37617      7.74491     17.39184         0.780109     -0.812415      0.773764
Pb      11.57831      7.70053      8.61923        -0.262010     -0.515541      0.125746
Pb      11.42599      7.55277     13.16238         0.946752      0.218487     -0.538745
Pb      11.42962     11.52917      4.23649         0.564468      0.144035      0.199144
Pb      11.44828     11.53653     17.37124         0.411798      0.039975      0.823933
Pb      11.34659     11.41127      8.72544         0.942490      0.523504     -0.237676
Pb      11.58411     11.47632     13.07451         0.108060     -0.460956      0.087973
Ti       1.91935      1.88255      2.34834         0.227696     -0.073448     -0.585420
Ti       1.92531      1.95131     15.40279        -1.219788     -0.594572      0.538906
Ti       1.98751     13.39618      2.23142        -0.476405      0.936420      1.729510
Ti       1.88460     13.47199     15.27890         0.397492     -0.179154     -0.014741
Ti      13.43793      1.90125      2.30750         0.504670     -0.595733     -0.419904
Ti      13.32992      1.87495     15.41721         0.137026      0.316621      0.805508
Ti      13.52363     13.40550      2.35154        -1.727436      0.032149     -1.644775
Ti      13.45230     13.40525     15.49149        -0.058818     -0.219707     -0.254809
Ti       1.86202      1.97439      6.72713         0.175969     -0.313486      1.196320
Ti       1.92361     13.51964      6.70074        -1.134362     -1.480788     -0.012868
Ti      13.47177      1.86188      6.70257        -0.870635     -0.203024     -0.368161
Ti      13.37028     13.40693      6.76151         0.478061     -0.360875     -1.319595
Ti       1.84879      1.96296     11.02233         0.345106     -0.045405     -0.236514
Ti       1.89115     13.41964     11.12893         0.539770      0.791520     -0.033859
Ti      13.37507      1.91620     11.02375         0.311898     -0.352653     -0.725545
Ti      13.42128     13.44442     11.12492        -0.331602     -0.234117     -1.254641
Ti       1.92207      5.78068      2.30270         0.101632     -0.881016     -0.954229
Ti       1.88535      5.69186     15.48912        -0.122220      1.544593     -0.469877
Ti      13.40100      5.71250      2.37857         0.531054      0.434429     -1.243062
Ti      13.39740      5.69799     15.56679        -0.884300      0.420188     -1.207708
Ti       1.85234      5.79273      6.66750         0.559002      0.611416      1.192907
Ti      13.48615      5.67917      6.62696        -0.938194      0.852792     -0.597280
Ti       1.91785      5.82625     11.00750        -0.812521     -1.141085     -0.351873
Ti      13.44329      5.66510     11.01697        -0.536147      2.197855     -0.514241
Ti       1.99026      9.61869      2.27013        -0.069698     -0.242194      0.173627
Ti       1.96770      9.62662     15.40175        -0.106423     -0.126993      0.721288
Ti      13.50163      9.63021      2.32568        -0.634066      0.530123      0.070188
Ti      13.44462      9.52201     15.45962         0.349023      0.214900      0.041846
Ti       1.99577      9.65184      6.55672        -1.339852     -0.070514      2.711655
Ti      13.47277      9.61052      6.61556         0.459725      0.352388      0.897981
Ti       1.99557      9.56730     11.00890        -0.981465      0.149407     -1.356326
Ti      13.40849      9.56956     10.98631         0.129418     -0.701508      2.238098
Ti       5.77270      1.88046      2.32976        -1.237946      0.036074      0.976511
Ti       5.70643      1.84413     15.36246         0.688972      1.015380     -1.299941
Ti       5.65644     13.47335      2.36603         1.297122     -0.183867     -0.134303
Ti       5.70405     13.38381     15.20659         0.142938     -0.357335      0.858885
Ti       5.69258      1.90093      6.78479        -0.157207      0.704016     -2.001525
Ti       5.70581     13.47100      6.86971         0.350019     -0.523910     -0.354026
Ti       5.70342      1.92322     10.95846         0.540922     -0.110575     -0.053095
Ti       5.78045     13.40351     10.95314        -0.911486      0.247836     -0.340273
Ti       5.70419      5.78372      2.37848         0.296483     -0.109931      1.437236
Ti       5.72866      5.69545     15.42605         0.163333      0.086108      0.608219
Ti       5.63991      5.78496      6.58419         0.843163      0.882355      0.559452
Ti       5.72883      5.83286     11.06032         0.374311     -0.091288     -1.967557
Ti       5.77383      9.66498      2.34664        -0.079726     -0.528518     -0.277622
Ti       5.73184      9.51104     15.43252         0.752730      0.542960     -0.444803
Ti       5.76798      9.63400      6.71125         0.168763     -0.612652      0.839990
Ti       5.82913      9.52925     10.93576        -0.456321      0.340685     -0.590804
Ti       9.51168      1.88568      2.38562         1.127951     -1.333306     -0.799320
Ti       9.45069      1.87960     15.37824         1.297470      0.887495     -0.585144
Ti       9.51141     13.42111      2.38774         1.371174      0.358086     -0.941228
Ti       9.57258     13.37989     15.40526         0.023588      0.686442      0.363848
Ti       9.51025      1.95610      6.72616         1.109445      0.150521     -1.474711
Ti       9.46686     13.49610      6.70187         1.084175     -0.357014     -0.340325
Ti       9.60404      1.94091     11.06259        -0.101616      0.027994     -1.704966
Ti       9.63831     13.40049     11.03350        -0.092024      0.434710     -1.171785
Ti       9.53556      5.68024      2.37045         0.578067      1.573542     -2.028050
Ti       9.54906      5.82610     15.44574         0.520466     -1.705889      0.966892
Ti       9.51750      5.72705      6.72053         1.030213      1.135667      1.492575
Ti       9.60834      5.79950     10.93315         1.052262     -0.250795     -1.241219
Ti       9.65794      9.61087      2.29538        -0.031697     -0.648917     -0.237828
Ti       9.63109      9.65265     15.50623        -1.700225     -0.839193     -1.450402
Ti       9.59217      9.57797      6.68271        -0.215615     -0.366699     -0.757414
Ti       9.60236      9.58068     11.08217         1.367222     -0.218358     -0.903172
O       1.96974      1.81506      0.59003         0.007077      0.495806      0.012781
O       1.84601      1.98963     13.67892         0.086296      0.077177     -0.349651
O       1.98581     13.40590      0.52918         0.266566     -0.061348     -0.944785
O       1.91736     13.46616     13.44634        -0.029812      0.004059      1.577648
O      13.27218      1.89133      0.53495         0.721138     -0.095790      0.912923
O      13.44968      1.96146     13.68932        -0.251516     -0.081437     -0.620009
O      13.53989     13.30123      0.51460        -0.130048      0.099636      0.754028
O      13.34403     13.43311     13.71784         0.166086      0.015470     -0.241044
O       1.79717      1.86303      4.99120         0.403647      0.299817     -0.205093
O       1.92902     13.42221      4.95813        -0.045365      0.105387     -0.556596
O      13.38283      1.79963      4.89502         0.397755      0.401456      0.712764
O      13.49420     13.50060      4.94187        -0.188249     -0.234237      0.814077
O       1.94455      1.97389      9.26392        -0.271894     -0.238288      0.271522
O       1.76905     13.52612      9.38188         0.385232     -0.046113     -0.336163
O      13.30648      2.02721      9.21426         0.148497     -0.383810      1.406715
O      13.52030     13.37549      9.36415        -0.255786      0.156288      0.347685
O       2.02596      5.74636      0.47140        -0.379289      0.226430      1.632933
O       1.79594      5.79168     13.71677         0.309745     -0.266849      0.568666
O      13.29610      5.77431      0.59528         0.091718     -0.288896      0.933843
O      13.31018      5.72931     13.76414         0.377858      0.013914      0.724600
O       1.82981      5.82770      4.96166        -0.204035     -0.357980     -1.799056
O      13.60027      5.64743      4.82064        -0.159842      0.361307      0.436627
O       1.87228      5.74229      9.23560         0.199739      0.556457      0.737028
O      13.45258      5.81661      9.20962         0.087693     -0.476190      0.653387
O       2.05718      9.50053      0.48560        -0.266693      0.587521      0.329051
O       1.98980      9.71316     13.66730        -0.035409     -0.574231     -1.052745
O      13.48821      9.66278      0.56309         0.146016      0.100667     -0.115018
O      13.44140      9.57751     13.71042         0.127697     -0.051912      0.136900
O       2.00097      9.66312      4.83240        -0.072181      0.036095     -0.946072
O      13.47229      9.67600      4.88972         0.081122     -0.174738     -0.408609
O       2.06002      9.64528      9.22289        -0.355159     -0.222894      1.156185
O      13.47997      9.55431      9.26538        -0.143935      0.116601     -1.034781
O       5.72325      1.80266      0.58713         0.217569     -0.117933     -0.525518
O       5.81875      2.01223     13.54151        -0.274613     -0.044771      0.912759
O       5.65572     13.55938      0.60295         0.234044     -0.184830      0.019872
O       5.79081     13.29203     13.47257        -0.325102      0.508837     -0.330725
O       5.74522      1.98607      4.90966        -0.310933      0.150796      1.507723
O       5.71397     13.46494      5.12563         0.188529     -0.156839     -0.513375
O       5.78050      1.93902      9.17924        -0.002351     -0.037204      1.034835
O       5.75548     13.54313      9.17589         0.009856     -0.071381      0.687915
O       5.82601      5.72199      0.68968        -0.214628      0.093616     -1.669371
O       5.60075      5.72851     13.65329         0.568831      0.161941     -0.103242
O       5.83903      5.61405      4.82629        -0.445764      0.119035      0.143293
O       5.72641      6.01016      9.25998         0.037773     -0.526442      1.555718
O       5.77135      9.59869      0.60171        -0.121288      0.118541     -0.413078
O       5.65641      9.52444     13.68218         0.095663     -0.336981     -0.822314
O       5.71039      9.68050      4.95338         0.273829      0.121594     -0.726437
O       5.75973      9.35308      9.14924         0.082369      0.593167      1.604264
O       9.49741      1.82093      0.57911         0.048426     -0.213659      0.769274
O       9.52355      1.93885     13.54860        -0.238789     -0.084754      0.828193
O       9.63060     13.43699      0.57881        -0.642657      0.180011      0.150646
O       9.61145     13.32741     13.66950        -0.087681      0.142912     -0.939310
O       9.62079      1.95712      4.86898        -0.203842      0.305245      1.528268
O       9.43353     13.52427      4.91872         0.190951     -0.672003      0.697302
O       9.65191      1.85236      9.21275        -0.202148      0.041375      1.360077
O       9.76568     13.46152      9.23563        -0.975839     -0.265838      0.857573
O       9.57867      5.74122      0.55406        -0.183853     -0.024332      1.271048
O       9.69329      5.83923     13.69464        -0.568758     -0.129739     -0.744720
O       9.47674      5.64207      5.02490         0.116517      0.027534     -2.106956
O       9.77615      5.89790      9.11406        -0.700984     -0.121052      1.459823
O       9.72294      9.59191      0.48969        -0.551141      0.004182      0.790864
O       9.45478      9.58253     13.71941         0.629703      0.012221      0.148983
O       9.51292      9.57371      4.86659         0.166407      0.399928      1.087252
O       9.75789      9.58559      9.24842        -0.656634      0.214810      1.306021
O       3.79726      1.89092      2.83004         0.944519     -0.141325     -0.143397
O       3.79307      1.89121     15.75952         0.760259      0.743427     -0.075936
O       3.87943     13.35882      2.87341        -0.554506      1.064888     -0.443702
O       3.90251     13.49287     15.78266        -0.891551     -0.020819     -0.505642
O       0.03693      1.88514      2.72575        -0.780838     -0.128639      0.066479
O      15.34898      1.93825     15.91185        -0.146062      0.032399     -0.407042
O      15.35941     13.35482      2.66679         1.477847     -0.001093      0.032522
O       0.05256     13.47831     15.78124         0.403347     -0.671428     -0.336403
O       3.87495      2.00472      7.23457        -1.359584     -0.377773     -0.886571
O       3.76427     13.59428      7.16064         1.122469     -0.658686     -0.008049
O      15.32214      1.94039      7.13171         0.288975      0.004438     -0.245853
O       0.01249     13.52349      7.15990        -0.508876     -0.320970     -0.068793
O       3.78525      2.04218     11.45729         1.383143     -0.751886     -0.343538
O       3.82540     13.53601     11.33185         0.396033     -0.425304      0.243117
O      15.32266      1.79516     11.37907        -0.764264      0.721232      0.161217
O      15.33105     13.57647     11.44428        -0.287113     -0.838890      0.178316
O       3.79918      5.80421      2.84934        -0.109079     -0.128019     -0.523824
O       3.86106      5.66597     15.92862        -0.038916     -0.163119     -0.586351
O      15.35516      5.73019      2.67193         0.324263      0.379693      0.084194
O      15.27166      5.71061     15.95445         0.729823      0.491939     -0.137578
O       3.77698      5.71758      7.06922         0.264143      0.400853     -0.424764
O       0.02012      5.73580      7.12666        -0.663555     -0.031923     -0.094840
O       3.79447      5.80179     11.44173         0.599990      0.220012      0.011405
O      15.33107      5.77867     11.41218        -0.069612      0.042588      0.277632
O       3.85750      9.43745      2.72630         0.059306      0.682511     -0.027294
O       3.90174      9.53180     15.85440        -1.244995      0.062916      0.267775
O       0.12312      9.77306      2.64815        -0.668704     -0.220591     -0.185923
O       0.07949      9.57116     15.84044        -0.265582     -0.071613     -0.003827
O       3.81968      9.74506      7.13005         0.597979     -0.497033     -0.572654
O       0.06780      9.68055      7.14894        -0.185560     -0.389887     -0.651848
O       3.88245      9.61337     11.32895         0.275174     -0.730840      0.301040
O      15.33044      9.54262     11.45205         0.442074      0.597178      0.019428
O       7.64918      1.87403      2.71990         0.313615      0.131052     -0.223578
O       7.62630      1.76561     15.78980        -0.022767     -0.037492      0.246212
O       7.66587     13.48148      2.77637        -0.577250     -0.356942     -0.149196
O       7.62522     13.43260     15.72495        -0.306624      0.202319      0.137483
O       7.59375      2.04646      7.09153         1.106504     -0.131173      0.109019
O       7.65380     13.47581      7.26052         0.210537      0.078046     -0.260736
O       7.67173      2.00503     11.39534        -0.315921     -0.497892      0.035436
O       7.65404     13.40429     11.40843         0.418369      0.279801     -0.240633
O       7.73034      5.69978      2.73668        -1.019321      0.286229      0.090944
O       7.61865      5.86266     15.85753         0.093784     -0.470569     -0.336304
O       7.64755      5.95248      7.08390        -0.624922     -0.942692      0.019576
O       7.74685      5.82448     11.34060        -0.530713     -0.111126      0.311188
O       7.61771      9.55867      2.72836         0.941520      0.167758      0.061782
O       7.64573      9.57833     15.74605        -0.005029     -0.348410      0.848381
O       7.67904      9.60713      7.17521         0.101909      0.028285     -0.313322
O       7.73751      9.63622     11.45378        -0.920311     -0.427245     -0.311091
O      11.61915      1.90651      2.73296        -1.273611      0.260712      0.060615
O      11.47283      1.90492     15.89292        -0.645200     -0.446392     -0.547372
O      11.48176     13.36903      2.64500         0.220363     -0.007243      0.649728
O      11.50733     13.31995     15.82165        -0.191584      0.303122     -0.046798
O      11.48958      1.93420      7.15030        -0.428262      0.167824     -0.736032
O      11.48574     13.44226      7.04255        -0.253969      0.032131     -0.077582
O      11.49008      1.95426     11.59416         0.129920     -0.511499     -0.617266
O      11.44160     13.50832     11.32613         1.286023     -0.505914      1.095109
O      11.49489      5.67818      2.89402         0.181637      0.279079     -0.574390
O      11.42239      5.65979     15.90833         0.262506      0.201916      0.089092
O      11.59580      5.88548      6.85205        -0.138605     -0.518002      0.300697
O      11.52971      5.71628     11.41172        -0.337912      0.135859      0.249981
O      11.56658      9.64915      2.74584        -0.720275     -0.339400     -0.237761
O      11.48564      9.62536     15.76975         0.372932      0.251723      0.101386
O      11.53087      9.54172      7.16255         0.358972      0.759746     -0.954658
O      11.52632      9.61515     11.51033        -0.430816      0.567076     -0.115140
O       1.93184      3.82726      2.71364         0.022446      0.512936      0.057763
O       1.77008      3.88806     15.96180         1.155006     -1.376712     -0.659706
O       1.99730     15.31845      2.81929        -0.389828     -0.504512     -0.401710
O       1.93437      0.01635     15.94391        -0.170681     -0.383385     -1.322413
O      13.52545      3.87025      2.69937        -0.440768     -1.060262      0.015056
O      13.32188      3.77621     15.89662         0.582199      0.366329      0.180621
O      13.44612     15.26951      2.77646         0.199207      0.940546     -0.348765
O      13.54788     15.30287     15.84584        -1.056259      0.268536     -0.374339
O       1.89090      3.89909      7.20200        -0.248771     -1.029250     -0.897676
O       1.85423      0.02745      7.14705         0.344392      1.058043     -0.059164
O      13.45191      3.79263      7.12190        -0.107631      0.605425     -0.636880
O      13.38483      0.00991      7.16990         0.226866     -0.029366     -0.214297
O       1.85023      3.87465     11.42428        -0.088328      0.178457      0.186586
O       1.95875      0.06581     11.55978        -0.018539     -0.250922     -0.300244
O      13.38111      3.84195     11.42914         0.472167     -0.749228      0.053690
O      13.30841      0.03898     11.50134         0.150428     -0.466000     -0.018559
O       1.84650      7.68936      2.71720         0.131840     -0.098216     -0.251055
O       1.99002      7.67364     15.85491        -0.259927     -0.420977     -0.144234
O      13.55170      7.81379      2.76649        -0.461209     -1.745478     -0.045192
O      13.31032      7.68047     15.98323         0.588156     -0.236175     -0.500089
O       1.99753      7.73510      6.99395        -0.308662     -0.030281     -0.137378
O      13.58937      7.63631      7.05806        -0.448533      0.582113     -0.610658
O       1.82833      7.73811     11.48709         0.754275     -0.912256     -0.090334
O      13.35980      7.69843     11.47576         0.351907     -0.554084     -0.129672
O       2.13434     11.54006      2.66598        -0.474074     -0.617076     -0.216401
O       2.12842     11.54648     15.67662        -0.659116      0.435792      0.268846
O      13.36794     11.52866      2.77483         0.674244     -0.073360      0.213711
O      13.48259     11.44026     15.83156         0.185461      0.625426      0.193912
O       1.98284     11.60153      7.13170        -0.217759     -0.246371     -0.172397
O      13.53580     11.51405      7.06532        -0.522250      0.027067      0.122753
O       1.95132     11.46004     11.41299        -0.492528      0.700409      0.099515
O      13.47586     11.50563     11.60688        -0.267246      0.591647     -0.540434
O       5.64832      3.80441      2.64327         0.461399     -0.207158      0.270201
O       5.91739      3.73996     15.87950        -0.814620      0.682777     -0.259468
O       5.86297     15.34089      2.92847        -1.336101      0.135567     -1.025723
O       5.73316      0.01421     15.69180        -0.017593     -0.792089     -0.004871
O       5.66212      3.96686      7.20185         0.668785     -0.501944     -0.673246
O       5.75542      0.08385      7.10085         0.158009     -0.557171      0.194860
O       5.80974      3.89617     11.37191        -0.247042     -0.107273      0.095152
O       5.76731     15.34641     11.46443         0.035012      0.808568     -0.455961
O       5.78992      7.64201      2.81496        -0.032504      0.370127     -0.189261
O       5.73997      7.63083     15.95158        -0.276728     -0.603923     -0.538974
O       5.63853      7.69686      6.93318        -0.126820     -0.093665     -0.105325
O       5.83241      7.69365     11.56768        -0.368025      0.037408     -0.056380
O       5.73720     11.56345      2.75023         0.095724     -0.552069     -0.000330
O       5.69007     11.47557     15.64150         0.213574      0.875148      0.626109
O       5.82629     11.52265      7.20366        -0.398893      0.446483     -0.006311
O       5.70321     11.48586     11.26576         0.418476     -0.201161     -0.014966
O       9.53957      3.80875      2.56737         0.534914     -0.685796      0.688315
O       9.43064      3.76500     15.75595        -0.064551      0.081733      0.225310
O       9.69203     15.31480      2.83752        -0.607578      0.946685     -0.552412
O       9.62647     15.29155     15.72256        -0.135776      0.039754      0.207721
O       9.55768      3.89792      7.20544        -0.067345     -0.878595     -0.476141
O       9.51631      0.04223      7.12300        -0.041615      0.254971     -0.341936
O       9.64681      3.82760     11.24258        -0.325598      0.796342      0.622510
O       9.59233      0.00591     11.49998        -0.264952     -0.346979     -0.130698
O       9.61631      7.70639      2.81898         0.090912     -0.597421     -0.356753
O       9.62871      7.63836     15.86474        -0.331723      1.163506     -0.168245
O       9.58286      7.75838      7.09519         0.175950     -0.571699     -0.240965
O       9.70639      7.68805     11.46977        -0.640775     -0.028701     -0.003976
O       9.54409     11.46442      2.66907        -0.181673      0.237928      0.423735
O       9.42391     11.49442     15.90452         0.879038      0.597542     -0.272287
O       9.53801     11.54153      7.20960         0.298852     -0.055450     -0.672322
O       9.58633     11.52233     11.47104         0.187816     -0.018219     -0.267787
