  # total energy = -7879.38495786 
CRSYTAL
PRIMVEC
    15.2000000000000000    0.0000000000000000    0.0000000000000000
     0.0000000000000000   15.2000000000000000    0.0000000000000000
     0.0000000000000000    0.0000000000000000    17.000000000000000
PRESSURE
8.30186 7.74509 1.56807 0.384137 -0.179932 0.081335
PRIMCOORD
320 1
Pb       3.74209      3.79676      4.16006        -0.292991     -0.218860      0.485113
Pb       3.93461      3.89054     16.97094        -0.694383     -0.284082      0.369477
Pb       3.67552      0.09405      4.31720         0.059168      0.018397     -0.585269
Pb       3.83912     15.17421     16.99777        -0.405938      0.011869      0.219704
Pb       0.01328      3.96445      4.27002         0.203851     -0.544884      0.136334
Pb      15.15574      3.65746      0.07629         0.000608      0.945475     -0.564391
Pb       0.05295      0.13802      4.26624        -0.472343     -0.316426     -0.054213
Pb      15.11074     15.13262     16.98695         0.335188      0.508328      0.274950
Pb       4.07379      3.65949      8.46525        -1.162221      0.783468      0.748293
Pb       3.78058     15.07677      8.69108         0.535549     -0.626311     -0.277973
Pb       0.09610      3.77817      8.47507        -0.359197     -0.097311      0.085858
Pb      15.18043     15.04271      8.58745        -0.384119      0.765567     -0.244256
Pb       3.72728      3.83628     12.73962         0.294613     -0.315149     -0.040803
Pb       3.63180      0.01860     12.80046         0.337318     -0.455324      0.144039
Pb      15.17087      3.74360     12.67206         0.563165      0.150970      0.916310
Pb      15.19677      0.11328     12.81531         0.174588     -0.779672      0.086860
Pb       3.80235      7.46745      4.21273        -0.930730      0.325094      0.018921
Pb       3.88261      7.57400      0.07693        -0.463469      0.022821      0.136563
Pb      15.16797      7.59276      4.14156         0.468785     -0.028250      0.113013
Pb      15.16261      7.55469     16.87613        -0.165882     -0.366215      0.589906
Pb       3.85187      7.64891      8.39508        -0.026753     -0.288049      0.268783
Pb      15.16548      7.49142      8.37770         0.243281      0.211059      0.712534
Pb       3.70897      7.52200     12.65603        -0.149135      0.368179      0.413195
Pb      15.15002      7.56496     12.59609         0.333676      0.131929      0.486313
Pb       3.62237     11.31457      4.26078         0.267243      0.819265     -0.165287
Pb       3.88417     11.31299      0.26077         0.203423      0.594109     -0.349956
Pb      15.15111     11.41978      4.20519         0.178376      0.321724      0.067409
Pb       0.03442     11.41092      0.06133        -0.442145      0.320977      0.019277
Pb       3.87503     11.35533      8.53964        -0.093761      0.510739     -0.171647
Pb      15.10642     11.34023      8.49000         0.350823     -0.260779      0.027981
Pb       3.60941     11.25882     12.90115         0.126857      0.419174      0.031196
Pb      15.14273     11.28255     12.77448         0.122128      0.293487      0.144672
Pb       7.44261      3.61963      4.15542         0.395733      0.173697      0.843063
Pb       7.54681      3.76216     16.90847         0.389682      0.177297     -0.123313
Pb       7.56025     15.10724      4.31663         0.195794      0.031190     -0.331418
Pb       7.64263     15.09571     16.99975        -0.161584      0.527895     -0.171663
Pb       7.67558      3.79375      8.43951        -0.262748     -0.155557      0.247983
Pb       7.63410     15.14726      8.37765        -0.340104     -0.097884      0.625796
Pb       7.54178      3.87488     12.76329        -0.008803     -0.304097      0.133265
Pb       7.63920      0.09839     12.69966        -0.642095     -0.314328      0.647368
Pb       7.70038      7.44143      4.33641         0.192251      0.802957     -0.044010
Pb       7.47456      7.70648     16.89388         0.471380     -0.152718      0.163402
Pb       7.60093      7.62741      8.45010        -0.069285      0.004153     -0.135771
Pb       7.55117      7.65152     12.77643         0.043375     -0.244613     -0.068332
Pb       7.52516     11.18307      4.29419         0.389731      0.735470     -0.092290
Pb       7.78046     11.46212     16.89879        -1.059470     -0.555838      0.280048
Pb       7.57286     11.45510      8.47654         0.007515     -0.183826      0.248331
Pb       7.50672     11.29032     12.67160         0.543355      0.534984      0.900054
Pb      11.31394      3.75258      4.21985         0.622464      0.290339      0.394884
Pb      11.36148      3.68074      0.02653         0.127483      0.256954     -0.446637
Pb      11.39086     15.13619      4.27185         0.695589      0.300819     -0.206601
Pb      11.41693     15.03270     16.95039        -0.295913      1.545289      0.713434
Pb      11.43312      3.80431      8.48741         0.075721     -0.124561      0.074128
Pb      11.38880      0.02748      8.29089        -0.243691      0.003434      1.264595
Pb      11.32612      3.82548     12.78863        -0.046435     -0.469331     -0.066716
Pb      11.46226      0.03750     12.63324        -0.390932      0.338137      0.781389
Pb      11.42438      7.63068      4.18637        -0.138178     -0.185306     -0.032660
Pb      11.24394      7.48413     16.89194         0.754350      0.117942      0.645400
Pb      11.32011      7.53304      8.41020         0.052101     -0.002274      0.329598
Pb      11.32919      7.55392     12.62852         0.188942      0.242418      0.542525
Pb      11.33986     11.19985      4.28748         0.072411      0.676493     -0.542691
Pb      11.38447     11.57730     16.87910         0.261082     -0.810339      0.760955
Pb      11.49928     11.44377      8.54513        -1.017367     -0.351811      0.012847
Pb      11.39235     11.45680     12.62463        -0.406493     -0.468989      0.489310
Ti       1.85943      1.93707      2.12191         0.292373     -0.151118      0.413950
Ti       1.92500      1.99692     15.01831        -0.690022     -1.484078     -0.015842
Ti       1.87980     13.37488      2.23542         0.053949     -0.054579     -0.427556
Ti       1.86922     13.32819     15.15161         0.401129      1.102915     -1.420389
Ti      13.30972      2.00803      2.27756        -0.263092     -1.277313      0.748610
Ti      13.30584      1.89557     15.03775        -0.034627      1.091381     -0.022387
Ti      13.21466     13.32564      2.32514         0.444074      0.659417     -0.376035
Ti      13.28358     13.32292     14.92847         0.167771     -0.156952     -0.026452
Ti       1.96321      1.84263      6.65033        -1.141720      1.201777     -1.099888
Ti       1.81160     13.34321      6.54433         0.672041     -1.432812     -1.756985
Ti      13.34873      1.94992      6.47382         0.117590     -0.207911     -0.697761
Ti      13.23457     13.25569      6.45266        -0.258611      0.582273     -0.961642
Ti       1.93584      1.83342     10.74340        -0.717383      0.458077      0.153704
Ti       1.78997     13.22324     10.77726         0.726152      0.725420      0.540467
Ti      13.34963      1.88653     10.76176        -1.267530     -0.489390     -1.754139
Ti      13.23139     13.22945     10.73782         0.753647      1.228792      0.960095
Ti       1.88408      5.69136      2.16997         0.100384     -0.015845     -0.697408
Ti       1.92972      5.69582     15.00118        -1.139193     -0.075570      0.223262
Ti      13.26440      5.74660      2.19911        -0.035920      0.080540     -0.734496
Ti      13.32698      5.66840     14.90418        -0.446921     -0.319565      1.572909
Ti       1.95357      5.71920      6.56227        -0.564409     -0.853602     -1.077678
Ti      13.31748      5.70790      6.41336        -0.868633     -0.981652     -0.096609
Ti       1.83599      5.62237     10.67209         0.510899      0.475581     -0.694772
Ti      13.25439      5.62087     10.74190         0.265018      0.350965     -1.391566
Ti       1.84705      9.59292      2.20342         0.923047     -1.399897     -0.310699
Ti       1.89309      9.56597     15.16703         0.404169     -0.882179     -1.387235
Ti      13.29939      9.54341      2.17955        -0.717069     -0.446330     -0.339983
Ti      13.32051      9.50496     15.01171        -0.170912      0.219112     -1.070247
Ti       1.88770      9.54887      6.49171        -0.407669     -0.188460     -0.713771
Ti      13.26305      9.43667      6.54731         0.103919      0.594699     -1.540784
Ti       1.87986      9.48712     10.66105        -1.082670     -0.407471     -1.291790
Ti      13.26319      9.46297     10.77353        -0.098980      0.103554     -0.626771
Ti       5.67013      1.84071      2.16031        -1.022281      0.042614     -0.442154
Ti       5.66695      1.85657     14.97646         0.437128      0.220464     -0.396133
Ti       5.69870     13.28494      2.31372        -1.429718     -0.311458     -0.744573
Ti       5.62706     13.28827     14.93789         0.657365      0.424357     -0.839839
Ti       5.71587      1.77365      6.54333        -0.114991      1.046775     -0.555548
Ti       5.64267     13.21544      6.38034        -0.385216      0.412694      0.318626
Ti       5.70468      1.83701     10.79089        -0.229715      0.193750      0.156744
Ti       5.58108     13.19339     10.99494         0.054967      1.339591     -0.833414
Ti       5.76966      5.72099      2.36097        -1.719673      0.085111     -2.358611
Ti       5.66754      5.74781     15.01708         0.888021     -0.040987     -0.512284
Ti       5.72090      5.69944      6.49939        -0.493864     -0.208256     -0.031904
Ti       5.65352      5.71399     10.77102         0.552246     -0.522705     -1.104372
Ti       5.72287      9.49306      2.31546        -0.321798     -0.233578     -0.279872
Ti       5.60269      9.57523     15.03853         1.032300     -0.383353     -0.792902
Ti       5.67260      9.50433      6.33755         0.696846     -0.370358      0.501418
Ti       5.64679      9.48420     10.77262        -0.034548      0.374795     -0.788657
Ti       9.46241      1.85478      2.31524         0.694753     -0.451390     -1.802405
Ti       9.51453      1.89913     14.98608        -0.008502      0.303057     -0.151458
Ti       9.42738     13.30779      2.27921         0.878800     -0.465193      0.173606
Ti       9.45871     13.31105     14.91735         0.107785      0.687945     -0.429884
Ti       9.54577      1.86815      6.37584        -1.056926      0.535199      0.595729
Ti       9.45619     13.22555      6.42326        -0.416416      0.082067     -0.159998
Ti       9.44825      1.88856     10.68044         1.729350      0.991061      0.031854
Ti       9.40482     13.35431     10.81848        -0.198336     -1.305110     -1.108068
Ti       9.48293      5.62863      2.23067         0.234180      1.228177     -0.644511
Ti       9.50690      5.73146     14.95147        -0.328578     -1.380522     -0.773378
Ti       9.48376      5.63683      6.46105         0.150514     -0.081416      1.036833
Ti       9.44713      5.68355     10.74022         0.024677     -0.085839     -0.483805
Ti       9.43907      9.51202      2.20680         0.822335     -0.418211     -0.544327
Ti       9.62512      9.50321     14.87545        -2.678309     -0.161165     -0.600316
Ti       9.49990      9.51765      6.47063        -0.698529     -0.247729      0.641943
Ti       9.46793      9.50553     10.70537         0.654828      0.361943      0.011576
O       1.90973      1.87171      0.36127        -0.162903      0.664560      0.461140
O       1.79410      1.88780     13.17287         0.478189      0.081709      0.789936
O       1.92559     13.38939      0.41480        -0.379358     -0.563841     -0.101649
O       1.87797     13.49142     13.32469        -0.147672     -0.600135      0.618246
O      13.27418      1.93155      0.50469         0.041986      0.191184      0.168193
O      13.39186      2.03996     13.26030        -0.387011     -0.700593     -0.234661
O      13.10289     13.28745      0.49477         0.430834     -0.003537      0.438900
O      13.32744     13.33107     13.16867        -0.296493     -0.224040      0.163829
O       1.86063      1.82676      4.80387         0.453527     -0.234883      1.087786
O       1.83489     13.23496      4.67197         0.164358      0.698339      1.403475
O      13.34681      1.99041      4.65272         0.085203     -0.336597      0.892779
O      13.19187     13.26346      4.63390         0.322606     -0.178604      0.988054
O       1.88821      1.89771      8.97390        -0.102131     -0.244560     -0.404665
O       1.85696     13.29032      8.99416        -0.141502     -0.109273     -0.441235
O      13.22451      1.93423      8.90054         0.205144     -0.254486      1.200795
O      13.12254     13.23329      8.96659         0.583417      0.292649     -0.317403
O       1.95988      5.49837      0.37095        -0.148328      0.699618      0.994246
O       1.81316      5.64392     13.20660         0.598700      0.570948      0.224378
O      13.20843      5.72677      0.40659         0.016015      0.300720      0.722479
O      13.14382      5.75089     13.15913         0.793409     -0.444490     -0.777081
O       1.78625      5.70949      4.73268         0.464853     -0.186494      0.601526
O      13.23354      5.74947      4.61273         0.405164      0.183813      0.585436
O       1.79937      5.66490      8.85821         0.188966      0.285838      0.444118
O      13.20905      5.62512      8.89315         0.282405      0.229371      1.447220
O       1.89170      9.59279      0.37787        -0.309005      0.277064      0.572191
O       1.94290      9.48522     13.27340        -0.127977     -0.106397      0.803890
O      13.35610      9.49315      0.39651        -0.149051      0.237180      0.001356
O      13.39417      9.58339     13.18324        -0.160649     -0.314875      0.691611
O       1.97822      9.61945      4.67067        -0.696854     -0.209439      0.671873
O      13.08236      9.45437      4.64795         0.913384      0.185808      1.665323
O       1.85657      9.53633      8.81503         0.150354     -0.026045      0.853898
O      13.30061      9.60304      8.98368        -0.051728     -0.506669     -0.449214
O       5.65932      1.83930      0.35556         0.174575      0.449199      1.007129
O       5.65395      1.89073     13.17407         0.142250      0.112062      0.419106
O       5.62354     13.22185      0.51789         0.389655      0.307951      0.144413
O       5.67855     13.33677     13.10116        -0.126346     -0.037743      1.816228
O       5.57751      1.90782      4.73644         0.395724     -0.330632      0.364286
O       5.67376     13.14826      4.61464         0.192389      0.889667     -0.431925
O       5.68735      1.90372      8.96243         0.070065     -0.292393      0.658855
O       5.55254     13.27090      9.17486         0.208352     -0.461334     -0.356247
O       5.81861      5.77836      0.43389        -0.687663     -0.174541      1.654221
O       5.71563      5.73080     13.21718        -0.146574      0.316605     -0.112445
O       5.66715      5.76697      4.70314         0.123111     -0.312456     -0.456976
O       5.73059      5.83017      8.94109        -0.094249     -0.256594      0.830117
O       5.65552      9.47196      0.50281         0.076605      0.069362      0.011075
O       5.49416      9.45396     13.22980         0.091621     -0.068191     -0.117165
O       5.69493      9.47462      4.54961        -0.110989     -0.064341      0.548636
O       5.66303      9.66599      8.94596        -0.169971     -0.549701      0.844720
O       9.44156      1.88816      0.46353         0.131890     -0.007134      1.336330
O       9.54066      1.99756     13.19685        -0.010997     -0.320724     -0.037919
O       9.48588     13.45463      0.45731         0.061520     -0.732518      0.370155
O       9.46771     13.33097     13.15401         0.069147      0.067250     -0.159830
O       9.41375      1.88414      4.60023        -0.231281      0.190567      0.084036
O       9.30404     13.13393      4.64279         0.152032      0.599757      0.318361
O       9.58094      1.86914      8.91149        -0.527285     -0.052570     -0.049218
O       9.48465     13.23530      9.00488        -0.385684      0.344278      0.507555
O       9.47553      5.77122      0.41822         0.076537     -0.143386      1.117219
O       9.51899      5.71061     13.09108        -0.108708     -0.040159      0.916047
O       9.39808      5.55398      4.73206        -0.032392      0.172134     -1.054061
O       9.41878      5.60484      8.91352         0.092679      0.849625      0.675681
O       9.43684      9.49457      0.43019        -0.050887     -0.187979     -0.538535
O       9.53784      9.43268     13.06855        -0.316324      0.194849      1.000063
O       9.37984      9.58549      4.69226         0.717101     -0.129380     -0.008476
O       9.52006      9.48086      8.93077        -0.220158      0.067936     -0.418921
O       3.65815      2.06910      2.58098         1.794110     -0.266424     -0.010213
O       3.80214      1.84758     15.34393        -0.276610      0.385392     -0.269360
O       3.72724     13.16929      2.46514         0.774311     -0.401206      0.753818
O       3.83964     13.43889     15.28387        -0.915312     -0.211862      0.168281
O       0.01417      1.77815      2.66918        -0.202818      0.811099     -0.727375
O      15.18269      1.96036     15.47635         0.031341     -0.145324     -0.362921
O      15.18075     13.45833      2.60894        -0.622490     -0.406010     -0.105120
O      15.14109     13.29835     15.43208         0.118830     -0.227901     -0.027668
O       3.80195      1.89991      6.96206         0.312959     -0.418552     -0.258828
O       3.85824     13.31406      6.92224        -1.563956     -0.202449     -0.142435
O      15.18260      1.92463      6.91742        -0.072754     -0.603346     -0.099528
O      15.06050     13.32553      6.86501         0.852134      0.110268      0.167719
O       3.74289      1.93278     11.13622         1.331010     -0.373737     -0.137838
O       3.71419     13.37820     11.15455        -0.554838     -0.421420      0.208176
O       0.01570      1.82448     11.15882        -0.071922      0.249462     -0.454565
O      15.15631     13.29138     11.16558        -0.570768      0.029194     -0.536448
O       3.75536      5.64375      2.61401         0.517548     -0.297151      0.027730
O       3.80610      5.71645     15.29286        -0.640393      0.124640      0.233330
O       0.00067      5.75923      2.53865        -0.429845      0.318806      0.043912
O      15.17927      5.56379     15.35760         0.377141      0.886960     -0.154800
O       3.80250      5.70975      6.90391         0.109239      0.311304     -0.192392
O      15.15145      5.64721      6.83538         0.245869      0.044901     -0.068949
O       3.79306      5.73647     11.02623        -0.513188      0.131580      0.274908
O       0.01102      5.60383     11.07993        -0.933939      0.502725     -0.071461
O       3.73794      9.68506      2.57788         0.287069     -0.254817     -0.337932
O       3.79179      9.61116     15.48668        -0.678792     -0.345009      0.041575
O       0.03685      9.46390      2.63483        -1.309799     -0.126979     -0.079431
O      15.18814      9.69294     15.40032         0.043023     -0.449596     -0.149460
O       3.81893      9.50948      6.75235        -0.504416      0.216059      0.239923
O      15.18056      9.43562      6.87765        -0.304893      0.523687     -0.404396
O       3.68863      9.40300     10.93589         1.058556      0.119911      0.512219
O      15.15969      9.54165     11.08844         0.663910     -0.162148      0.147883
O       7.54514      1.76182      2.47931        -0.269485     -0.013231      0.675599
O       7.58885      2.04624     15.19639        -0.175125     -0.245080      0.441240
O       7.55700     13.55140      2.47791         0.056329     -0.023044      0.390924
O       7.64989     13.33300     15.32735        -1.065190     -0.067393      0.153064
O       7.57390      1.96278      6.81859         0.321561     -0.495035     -0.049969
O       7.45669     13.28135      6.88762         1.387671      0.191992     -0.035826
O       7.62544      2.00016     11.09598        -0.874779     -0.024801     -0.016094
O       7.51535     13.14531     11.17665         0.930055      0.580496     -0.268801
O       7.55204      5.79691      2.67774         1.241493     -0.328725     -0.136977
O       7.58283      5.68454     15.37103         0.299534      0.367149     -0.494221
O       7.53838      5.72082      6.86139         1.202347      0.011697     -0.009423
O       7.56838      5.75986     11.21393         0.524447     -0.231354     -0.521015
O       7.60304      9.31314      2.61940        -1.100485      0.253486      0.000491
O       7.50768      9.54098     15.26868         0.979531     -0.377914      0.104029
O       7.62324      9.57278      6.81841        -0.503716     -0.361115     -0.042957
O       7.55398      9.64116     10.98230        -0.444347     -0.930452      0.303043
O      11.37932      1.96104      2.74399         0.234985      0.099328     -0.695246
O      11.41365      1.91138     15.44539        -0.236736     -0.006171     -0.358956
O      11.33481     13.17729      2.68912         0.213991      0.333704     -0.137560
O      11.35703     13.40455     15.33746         0.187569     -0.519279     -0.364583
O      11.35706      1.88946      6.66436         0.043975     -0.110398      0.206031
O      11.33076     13.21538      6.82096         0.037527      0.413920     -0.237722
O      11.43367      1.79458     11.07871        -0.571482      0.682781      0.125169
O      11.37081     13.41074     11.13913        -0.440242     -0.810817     -0.122984
O      11.31435      5.66613      2.65358         0.229544     -0.042620     -0.406844
O      11.38943      5.71077     15.28882         0.235237      0.109203      0.153753
O      11.37326      5.73738      6.83803        -0.142268     -0.157407     -0.262568
O      11.42621      5.56819     11.07478        -0.337403      0.798712     -0.213909
O      11.34465      9.57369      2.46747         0.963149      0.024229      0.539481
O      11.36413      9.53739     15.13815         1.561666     -0.214269      0.685813
O      11.40795      9.51819      6.86978        -0.535924     -0.282016     -0.062425
O      11.38474      9.44577     11.07223         0.044446      0.799053      0.055303
O       1.81041      3.81671      2.75602        -0.348774     -0.131118     -0.801255
O       1.92528      3.80035     15.38484         0.301358      0.405684     -0.290829
O       2.06555      0.02206      2.53221        -0.445259      0.561418      0.501062
O       1.78063      0.10381     15.48814         0.334691     -1.035135     -0.559941
O      13.37871      3.92583      2.56527        -0.270939     -1.592350      0.136872
O      13.30170      3.80228     15.44144        -0.477134      0.173628     -0.215149
O      13.25592      0.07082      2.61829        -0.691292     -0.766404      0.122717
O      13.28614      0.04509     15.38608         0.151235     -1.041816     -0.252585
O       1.87060      3.75068      6.94269         0.320265      0.301539     -0.436066
O       1.81116     15.12794      7.00953         0.287047      1.042239     -0.003390
O      13.20116      3.80540      6.73835         0.089107      0.254199      0.210729
O      13.13771     15.18877      6.88355         0.964929     -0.296370     -0.732883
O       1.94803      3.79639     11.14826        -0.397694     -0.208814     -0.389726
O       1.87986     15.16050     11.07107        -0.173935      0.350444      0.034704
O      13.42211      3.74525     11.13213        -0.852047      0.472823     -0.394233
O      13.23250     15.18160     11.21712         1.150897     -0.057396     -0.800357
O       1.94876      7.59806      2.44163         0.000373      0.406815      0.366187
O       1.89841      7.61042     15.52032        -0.099304     -0.055782     -0.763400
O      13.24554      7.61982      2.58206        -0.080747      0.387127      0.062950
O      13.34895      7.61651     15.26413         0.079170      0.185254      0.075979
O       1.82385      7.60393      6.60088         0.317452      0.432637      1.116602
O      13.30450      7.55825      6.89553        -0.330486      0.653210     -0.162144
O       1.77119      7.55132     10.97478         0.242211      0.496276      0.335655
O      13.28506      7.61834     11.08371         0.239288     -1.509158     -0.183702
O       1.70066     11.44254      2.58358         0.193255     -0.113706     -0.181091
O       1.99867     11.44623     15.32611        -0.409150      0.327726      0.260058
O      13.36118     11.38736      2.52082         0.187012      0.305688      0.317562
O      13.18349     11.46418     15.27232         0.068450     -0.391372      0.333680
O       1.76889     11.50804      6.77176         0.321244     -1.644552      0.505257
O      13.26508     11.35606      6.93091         0.185096      0.236599     -0.562492
O       1.84068     11.37442     11.13303         0.427122     -0.501031      0.006045
O      13.27240     11.36222     11.09602        -0.291570      1.101180      0.085814
O       5.70814      3.77449      2.61089         0.070851      0.053781     -0.339855
O       5.61894      3.88996     15.39252         0.395852     -1.232860     -0.330318
O       5.40239      0.04899      2.63834         0.589425     -0.485961     -0.067249
O       5.69384      0.01222     15.43368         0.699923     -0.219920     -0.608564
O       5.72853      3.84180      6.87999        -0.163235     -0.630819     -0.238602
O       5.64168     15.17847      6.91767         0.379918     -0.443201     -0.400439
O       5.64718      3.80355     11.20210         0.151998      0.205150     -0.512917
O       5.72995     15.18927     11.20042         0.033533      0.909291     -0.507419
O       5.46732      7.57350      2.63673         0.717766      0.225751     -0.437767
O       5.55751      7.65571     15.38405         0.536998     -0.324308     -0.012711
O       5.73562      7.64598      6.78828        -0.230838      0.165406      0.307624
O       5.74058      7.61401     11.09188        -0.254042      0.482572      0.163309
O       5.79987     11.35765      2.59682         0.157222      0.414220     -0.230763
O       5.69454     11.45451     15.33573        -0.136871      0.188944      0.115283
O       5.76076     11.35972      6.73088        -0.611164      0.032944      0.296289
O       5.54978     11.34463     11.35827        -0.383684     -0.905817     -0.793852
O       9.43888      3.74754      2.62696        -0.534244      0.774793     -0.330207
O       9.56685      3.83787     15.34406        -0.245263     -0.188585      0.138113
O       9.63233     15.16820      2.76081        -0.700788      0.231308     -0.396319
O       9.47174      0.03985     15.39921        -0.176540     -0.324436     -0.529773
O       9.48020      3.75624      6.96281         0.071590      0.059571     -0.954649
O       9.33522     15.15675      6.68386         0.486255      0.332847      0.123035
O       9.61344      3.83451     11.01628        -0.701843     -0.587835      0.189562
O       9.35638      0.04674     11.03183         0.118584     -0.840359      0.302002
O       9.55990      7.65921      2.72062        -0.314454     -1.648387     -0.341742
O       9.54400      7.55728     15.21744        -0.480262      1.643272      0.247943
O       9.45237      7.57363      6.72467         0.036788      0.374354      0.323657
O       9.58606      7.63354     11.04620        -0.817706     -1.052519     -0.223138
O       9.39830     11.40256      2.52494        -0.636754      0.310948      0.035174
O       9.48158     11.39883     15.33873         0.382550      0.222620     -0.455804
O       9.48038     11.44281      6.81316        -0.176171     -1.221288      0.300271
O       9.42421     11.38322     11.17442         0.983393      0.518262     -0.280489
