  # total energy = -7865.78063021 
CRSYTAL
PRIMVEC
    15.010000000000000    0.0000000000000000    0.0000000000000000
     0.0000000000000000   15.010000000000000    0.0000000000000000
     0.0000000000000000    0.0000000000000000    16.400000000000000
PRESSURE
17.3065 17.274 8.28574 0.001122 0.245651 -0.057092
PRIMCOORD
320 1
Pb       3.57932      3.73827      4.02452         0.804356     -0.299847      0.410624
Pb       3.85881      3.67904      0.01739        -0.925855      0.095687     -0.555839
Pb       3.74165     14.96565      4.10801         0.297320      0.048660      0.135243
Pb       3.66741      0.01765     16.39776        -0.003101     -0.177212     -0.249718
Pb       0.00321      3.72363      4.14470         0.082176      0.075883     -0.346779
Pb       0.01678      3.85433      0.08689         0.267709     -0.496719     -0.731185
Pb       0.04717     14.94914      4.06731        -0.581088      0.173660      0.908840
Pb      14.94158      0.02737     16.33739         0.331797     -0.354797     -0.351769
Pb       3.91398      3.67823      8.21719        -0.097574      0.521627     -0.233947
Pb       3.83563     14.95118      8.34156        -0.271875     -0.065681     -0.833903
Pb       0.10310      3.66207      8.11930        -0.247668      0.357618      0.630523
Pb       0.13726      0.05790      8.30808        -0.232104     -0.456975     -0.153975
Pb       3.81589      3.78761     12.35783         0.003279     -0.081679     -0.240334
Pb       3.81983      0.05545     12.25986        -0.697186     -0.841665      0.662715
Pb      14.97603      3.67009     12.27985         0.186607     -0.009617     -0.178475
Pb      14.90573     15.00282     12.28468         0.785403      0.273956      0.415964
Pb       3.57851      7.60223      4.07951         0.638487     -0.204831      0.585807
Pb       3.73353      7.46847     16.38631         0.145316      0.296050     -0.660171
Pb      14.86950      7.44082      4.10494        -0.015143      0.700992     -0.082957
Pb       0.00534      7.47687      0.03830        -0.339942      0.142421     -0.087436
Pb       3.66018      7.46996      8.31524         0.409748     -0.087573     -0.737701
Pb      14.94615      7.43736      8.12374         0.287005      0.095860     -0.124249
Pb       3.81589      7.45726     12.36066        -0.032471      0.038613      0.009429
Pb       0.14650      7.50235     12.33330        -0.713944     -0.501861     -0.257691
Pb       3.64671     11.29277      3.91839         0.180992      0.255952      1.014783
Pb       3.69267     11.29216      0.09804        -0.070352     -0.363291     -0.719870
Pb      14.83244     11.28460      4.16287         0.473038     -0.142985      0.066125
Pb      14.97369     11.12802     16.35741        -0.061885      0.941151      0.754637
Pb       3.63869     11.15371      8.24457         0.503469      0.617495     -0.165114
Pb      14.89651     11.17982      8.28583        -0.144621      0.397770     -0.397034
Pb       3.74744     11.21934     12.41265        -0.232164      0.365853     -0.018245
Pb      14.98735     11.18842     12.29277         0.059854      0.405368     -0.385432
Pb       7.47526      3.69800      4.21543        -0.055906     -0.081561     -0.179411
Pb       7.46196      3.81247      0.04501         0.372944     -0.506209     -0.407938
Pb       7.41983      0.04357      4.11590         0.373401     -0.267502     -0.064283
Pb       7.53871      0.02880      0.05414        -0.258870      0.325625     -0.020558
Pb       7.59489      3.84385      8.30927        -0.518392     -0.829793     -0.625497
Pb       7.44188     14.75606      8.35597         0.419575      0.984597     -0.441661
Pb       7.58259      3.60464     12.33180         0.034395      0.219702     -0.477872
Pb       7.50070      0.01535     12.29875        -0.136236      0.250163      0.070562
Pb       7.41524      7.50862      4.13142        -0.115691     -0.115523     -0.229772
Pb       7.45461      7.49447      0.14041         0.503779     -0.057396     -0.769420
Pb       7.48915      7.56829      8.17461        -0.182952      0.181151      0.137739
Pb       7.53250      7.33316     12.31489         0.449740      0.594973     -0.203458
Pb       7.25363     11.30376      4.10956         0.625039      0.234096      0.049942
Pb       7.48055     11.25402      0.09944        -0.081761     -0.154167     -0.221040
Pb       7.40899     11.14893      8.35809         0.040930      0.121658     -0.792626
Pb       7.51651     11.17069     12.49221        -0.244750      0.143847     -0.578789
Pb      11.42247      3.70915      4.13947        -0.656361     -0.574181      0.020757
Pb      11.18408      3.78692      0.03501         0.547771     -0.575586     -0.553920
Pb      11.25312      0.03579      4.17323         0.228937      0.015781     -0.441742
Pb      11.17905      0.00241      0.00101         0.660646     -0.163770     -0.192387
Pb      11.29285      3.77705      8.21221         0.184059     -0.417446     -0.577143
Pb      11.34261     14.94291      8.23938        -0.856569      0.237014     -0.137822
Pb      11.32833      3.74672     12.34942         0.120308      0.115995     -0.015585
Pb      11.25457     14.90784     12.23606         0.273865      0.306072      0.329411
Pb      11.00473      7.42522      4.12247         1.311661     -0.101004     -0.022994
Pb      11.20010      7.49558      0.00849         0.105236     -0.356720      0.154571
Pb      11.17826      7.51183      8.24048         0.097803      0.359070     -0.627292
Pb      11.25125      7.49756     12.41916        -0.257422     -0.109749     -0.890497
Pb      11.12315     11.34107      4.22780         0.681126      0.138630     -0.572873
Pb      11.11625     11.33704      0.08330         0.950330      0.006891     -0.018861
Pb      11.14074     11.18382      8.18970         0.113856      0.082343      0.499927
Pb      11.26775     11.25605     12.35896         0.007074     -0.368259     -0.051790
Ti       1.81962      1.80029      2.13913         1.565352      0.299602     -1.402033
Ti       1.93461      1.84532     14.34980        -1.495616      0.135101      0.032903
Ti       1.77634     13.13225      2.04284         0.013659     -0.183591     -0.200775
Ti       1.82079     13.10956     14.36493         1.539112      0.801341     -0.429904
Ti      13.20838      1.86385      1.93096        -1.955271     -0.636150      0.966124
Ti      13.15822      1.86684     14.37689        -0.398397      0.132194      0.320450
Ti      13.11422     13.19427      2.10877        -0.737432     -0.272879     -0.899339
Ti      13.14371     13.04451     14.32353        -0.645258      1.253914      1.657849
Ti       1.92552      1.82384      6.17485         0.448467     -0.783028      0.394829
Ti       1.80008     13.11946      6.29213         0.040845      0.734002     -0.383433
Ti      13.19534      1.80285      6.23501        -1.373259     -0.361065     -0.868131
Ti      13.08549     13.17984      6.23500         0.349606     -1.856831     -0.321834
Ti       1.96695      1.93783     10.27303        -0.374804     -0.818831      0.560409
Ti       1.87184     13.15705     10.34410         0.130427     -0.564838      0.402150
Ti      13.17705      1.87807     10.29502         0.763967     -0.143502      0.180550
Ti      13.13711     13.13709     10.28488        -0.496152     -0.917312     -0.159973
Ti       1.88642      5.67940      2.09079        -0.735082     -1.111731     -0.319234
Ti       1.84853      5.59494     14.28440         1.249869     -0.888562      0.583571
Ti      13.10878      5.61137      2.13117         0.352727      1.114817     -0.438212
Ti      13.16658      5.63676     14.27694        -0.186856     -1.007285      0.361880
Ti       1.89703      5.58434      6.18447         0.055215      1.039261      0.053744
Ti      13.18327      5.52893      6.19589        -1.518785      1.263356      0.902209
Ti       1.95832      5.61749     10.27459        -0.623336     -0.447313     -0.190195
Ti      13.23387      5.68817     10.23999        -0.675909     -1.233641      0.936626
Ti       1.88928      9.39652      2.06754        -1.621780      0.749132     -0.273779
Ti       1.90861      9.35351     14.36726         0.613178      0.616247      1.545561
Ti      13.11479      9.42925      2.10136         0.498147     -0.103108      0.676625
Ti      13.11734      9.35891     14.39599         0.150972      0.252932      0.390059
Ti       1.82947      9.41244      6.19828        -0.431427     -1.182641     -0.558735
Ti      13.08746      9.36429      6.15832        -0.112527     -0.031947     -0.964511
Ti       1.77856      9.35173     10.29583         0.948221      0.522640      0.251163
Ti      13.07987      9.33082     10.31949        -0.492149      0.897280      1.131107
Ti       5.65666      1.89884      2.03431        -0.420848     -0.212161      0.040866
Ti       5.63334      1.83336     14.33135        -0.151412      0.085404      0.280125
Ti       5.58360     13.18987      1.95457         0.483422      0.071172      1.256438
Ti       5.63074     13.13133     14.38682        -1.215004      0.584175     -0.324246
Ti       5.73247      1.90472      6.23423        -0.120486     -0.184972      0.318369
Ti       5.55774     13.13281      6.22430        -0.152713     -0.511839      0.563601
Ti       5.72727      1.92185     10.25637         0.384770     -0.552733     -0.181764
Ti       5.61174     13.09182     10.43184        -0.245558      0.157190     -0.629326
Ti       5.57525      5.61192      2.07314         0.242176      0.455468      0.640677
Ti       5.67451      5.67732     14.39307        -0.430587     -0.532793      0.234423
Ti       5.60567      5.69287      6.14190        -0.358944     -0.446500      0.567870
Ti       5.70058      5.63886     10.27933        -0.327573     -0.371490     -0.514937
Ti       5.63394      9.32056      2.07037        -0.200097      0.899774      0.526269
Ti       5.67876      9.42205     14.37104        -1.508202     -0.892255      0.207484
Ti       5.50138      9.40751      6.18676         0.693980      0.493403     -1.289556
Ti       5.53601      9.38665     10.39757         0.812940     -0.444955     -0.030188
Ti       9.41576      1.87195      2.11504        -0.080929     -0.280310     -0.177187
Ti       9.36857      1.77767     14.37028         1.255185      0.424319     -0.172085
Ti       9.31966     13.13726      2.02063         0.004571      0.008881      2.281014
Ti       9.35430     13.05321     14.32976         0.646878      0.686969      0.024687
Ti       9.42793      1.78928      6.22634         0.224476     -0.058674      0.799657
Ti       9.31035     13.04256      6.20362        -0.027904     -0.050048     -0.534815
Ti       9.60637      1.89976     10.28192        -3.180831     -1.538354     -0.623461
Ti       9.33342     13.12797     10.37861         0.726885     -0.168979     -0.360406
Ti       9.31934      5.53768      2.10086         0.652161      0.570690     -0.140486
Ti       9.40100      5.48025     14.34123        -0.618863      1.438260      0.026983
Ti       9.33451      5.57874      6.22105         0.595840      0.087663      0.113898
Ti       9.44581      5.60212     10.18478         0.219279      0.758148      1.871326
Ti       9.41703      9.35361      2.10590        -0.890794      0.236475     -0.717798
Ti       9.43588      9.31237     14.46187        -1.135767     -1.207793      0.136237
Ti       9.31556      9.38527      6.09212        -0.519747      0.067652      1.402979
Ti       9.30604      9.43202     10.45985         0.610660     -1.596403     -1.144963
O       1.85693      1.75312      0.26407         0.447525      0.071206      0.957660
O       1.97349      1.79606     12.51254         0.025223      0.790750     -0.002919
O       1.70512     13.14722      0.22226         0.775005      0.172771      0.314312
O       1.89019     13.12942     12.53863        -0.331531     -0.566554      0.202013
O      13.05507      1.79376      0.14912         0.358136      0.676137      0.777351
O      13.11278      1.87880     12.53817         0.187923     -0.154441      0.153068
O      13.12089     13.19273      0.27352         0.364308     -0.317362      0.779457
O      13.11376     13.06535     12.52064         0.158901      0.036070      0.326546
O       1.77315      1.81782      4.34589         0.215986      0.454113     -0.379439
O       1.71111     13.12228      4.47762         0.499492      0.015877      0.141334
O      13.01845      1.86823      4.36963         0.432588      0.155753      0.536924
O      13.09869     13.16222      4.38331        -0.244719     -0.128203     -0.145928
O       1.85525      1.85070      8.43329        -0.019355      0.363748      0.347311
O       1.89147     13.27019      8.52631         0.015854     -0.741177      0.020887
O      13.18880      1.81662      8.51392        -0.274207     -0.096181     -1.640278
O      13.05799     12.99872      8.48285         0.100745      0.603279     -0.198130
O       1.78782      5.66493      0.25188         0.200696     -0.023571      0.144656
O       1.88407      5.57963     12.46627        -0.065224     -0.228205      0.732241
O      13.19749      5.59847      0.28810        -0.133905      0.144887      0.349676
O      13.30462      5.62066     12.45612        -0.544409     -0.212721      1.186218
O       1.77701      5.69934      4.32742         0.576771     -0.511907      0.229571
O      13.08033      5.64418      4.41939         0.728954     -0.456780     -1.155162
O       1.90048      5.52429      8.42915        -0.147940      0.253210      0.523040
O      13.13408      5.49028      8.44608         0.256465      0.484066     -0.058630
O       1.93394      9.48641      0.21380        -0.476284     -0.559888      0.633257
O       1.99802      9.42745     12.60130        -0.641284      0.008874     -1.155992
O      13.19542      9.42030      0.29510        -0.308199     -0.273162     -0.546520
O      13.05794      9.32590     12.59273         0.403104      0.477816      0.313565
O       1.91961      9.33107      4.33521        -0.220413      0.228998      0.485164
O      13.18952      9.29745      4.26031        -0.480684      0.437236      2.370161
O       1.87476      9.26519      8.50325        -0.000160      0.281066     -0.071335
O      13.11483      9.40646      8.56402        -0.125710     -0.314749     -1.358550
O       5.65778      1.89926      0.15456        -0.120937      0.050522      1.309385
O       5.43176      1.80328     12.46278         0.871712      0.762074      1.126192
O       5.74258     13.16409      0.16846        -0.143601     -0.074804      0.344528
O       5.59404     13.20801     12.52480         0.471508     -0.382503      0.419140
O       5.83403      1.79836      4.40494        -0.852391      0.426790     -0.085773
O       5.67205     13.14793      4.42582        -0.387950     -0.003589     -0.915584
O       5.80728      1.91423      8.41647        -0.555333      0.003217      0.011043
O       5.68312     13.08762      8.50383        -0.284596     -0.045676      0.660002
O       5.62338      5.70874      0.23551        -0.391856     -0.586272      0.320130
O       5.68519      5.62259     12.57902         0.124032      0.010625     -0.550494
O       5.70674      5.70363      4.32952        -0.261191     -0.094717     -0.029955
O       5.62291      5.56940      8.46718        -0.005076      0.304290     -0.031601
O       5.61237      9.26264      0.25791         0.315022      0.545747     -0.192612
O       5.42591      9.33577     12.48809         1.106657      0.199805      1.479661
O       5.44315      9.47489      4.25418         0.388189     -0.536539      1.005379
O       5.52483      9.42933      8.59378         0.105179      0.030400     -1.301086
O       9.31289      1.91693      0.28056         0.000635      0.160386     -0.304228
O       9.39293      1.86596     12.48833         0.247312     -0.221563      0.950177
O       9.20513     13.17196      0.27099        -0.122106     -0.690764     -2.019983
O       9.32952     13.18186     12.45726        -0.019955     -0.254717      2.172215
O       9.39311      1.87415      4.42361         0.224459     -0.088498     -1.028520
O       9.38265     12.87502      4.34266        -0.121492      0.647581      0.405422
O       9.50504      1.75367      8.49012        -0.164279      0.184651      0.032629
O       9.33213     13.06193      8.57191        -0.042047     -0.230053     -0.899060
O       9.45869      5.49937      0.25671        -0.153973      0.293008      0.170489
O       9.35728      5.33737     12.50938        -0.345149      0.736980      0.328889
O       9.15187      5.75276      4.39333         0.604363     -0.408747      0.041175
O       9.29684      5.66627      8.38422         0.712945      0.092712      0.285061
O       9.36118      9.21320      0.20055        -0.154430      0.357670      0.715422
O       9.51166      9.31310     12.64579        -0.741073      0.460276     -0.638604
O       9.31003      9.31355      4.29685         0.321549      0.292000     -0.353914
O       9.46508      9.33498      8.58600        -0.562247      0.067701      0.897821
O       3.74143      1.99067      2.45607         0.186822     -0.159325     -0.299625
O       3.73945      1.67409     14.76163         0.984760     -0.172070     -0.408774
O       3.68894     13.13145      2.32066         1.073775     -0.666478     -0.124394
O       3.76710     13.47132     14.60405        -0.443685     -0.573870      0.353913
O      15.00952      1.48454      2.14293        -0.269914      0.965573      0.631236
O      15.00014      2.05387     14.65651         0.491840      0.420686     -0.102464
O      14.99996     13.35328      2.44499        -0.684910     -0.388227     -0.682768
O      15.00080     13.01338     14.57338        -0.865991     -0.787748      0.050658
O       3.77992      2.05163      6.46682         0.284817     -0.505850     -0.381838
O       3.69255     13.08962      6.48717         0.191800      0.104523      0.186145
O      14.99305      1.58925      6.38762         0.616482      0.671016      0.414939
O      14.91943     13.32425      6.59065         1.374679     -0.217955      0.024356
O       3.80629      2.26637     10.36976        -0.507083     -0.646114      0.184102
O       3.76896     12.83248     10.63820        -0.470372      0.246844     -0.765717
O       0.00266      1.61600     10.56038         1.368661      0.033044      0.082973
O      15.00006     13.37850     10.63084         0.110862     -0.228581     -0.483329
O       3.71931      5.37411      2.37500        -0.129142      0.881300     -0.225384
O       3.79623      5.83332     14.55453        -0.873358     -0.138961      0.307034
O       0.00885      5.66903      2.42342        -0.481896      0.033282     -0.158711
O       0.02887      5.32591     14.61498        -0.364841      0.486885     -0.044734
O       3.70565      5.51064      6.46936         0.983989      0.006350     -0.348580
O       0.00491      5.66735      6.45414        -0.112939     -0.061552      0.136710
O       3.78755      5.43328     10.53714        -0.236798     -0.369184      0.146858
O       0.03006      5.80019     10.55970         0.517431      0.235030     -0.311295
O       3.72423      9.65989      2.22997         0.101894     -0.566165      0.118532
O       3.77120      9.24709     14.70640        -0.156701     -0.652734     -0.048899
O      14.96898      9.29402      2.35859         1.466871      0.099353     -0.317600
O       0.02733      9.59616     14.69899        -0.341169     -0.544996     -0.849165
O       3.69329      9.36055      6.40631        -1.005418      0.015531      0.685569
O      14.97710      9.20359      6.60214         0.126137      0.382166     -0.608595
O       3.74490      9.67790     10.54918        -1.777128     -0.036581     -0.155439
O      14.95883      9.09436     10.62027         0.667036      0.402770      0.032759
O       7.48480      1.74691      2.34870        -0.094268      0.008044      0.013245
O       7.50360      1.99979     14.52432        -0.252014      0.130115      0.099817
O       7.48162     13.25462      2.40975        -1.224081      0.281323     -0.259781
O       7.49538     12.83713     14.48929         0.867331      0.052001      0.386587
O       7.61310      1.81781      6.40493        -1.314762      0.080342      0.438754
O       7.47896     12.81767      6.44213        -0.198473      0.783668      0.273463
O       7.53764      1.62532     10.57205         0.704927     -0.011783      0.078435
O       7.46607     13.50869     10.58646         0.459563     -0.360157     -0.403521
O       7.46423      5.76724      2.20582        -0.501641      0.261378      0.227559
O       7.50611      5.45676     14.70877         0.413053     -0.278418     -0.092283
O       7.46121      5.66456      6.54482         0.687103      0.451076     -0.306974
O       7.53855      5.86188     10.46955         0.468802     -0.216694      0.050835
O       7.48353      9.17795      2.34961        -0.360468      0.066125     -0.251599
O       7.48402      9.55064     14.57565         0.546229      0.345931      0.128102
O       7.38486      9.47076      6.44818         1.389890     -0.579656     -0.019957
O       7.46814      9.13590     10.53132        -0.066151     -0.133629      0.602821
O      11.24088      2.09687      2.30694         0.331687     -0.266363     -0.047705
O      11.25809      1.72676     14.65729        -1.105176     -0.118921     -0.198492
O      11.15401     12.99649      2.13336         1.414863     -0.177020      0.859221
O      11.27138     13.28102     14.76212        -0.971428     -0.335391     -0.752153
O      11.25413      1.88656      6.56897         0.831075     -0.241870     -0.051669
O      11.24572     12.83929      6.41170        -0.279236      0.434317      0.197469
O      11.33166      2.06628     10.61164         0.252439      0.137586      0.148138
O      11.23479     12.85781     10.72321         0.456137      0.169006     -0.805468
O      11.29673      5.55884      2.51634        -1.224409     -0.386185     -0.532013
O      11.24496      5.77255     14.55284         0.585662      0.089357      0.144375
O      11.30371      5.57130      6.46526        -1.501055      0.010341      0.037141
O      11.29655      5.44649     10.61168        -0.246792     -0.195011     -0.605303
O      11.22997      9.50538      2.30313        -0.023846     -0.181033      0.155043
O      11.25630      9.19860     14.77260         0.843427     -0.397435     -0.193737
O      11.20826      9.44216      6.55097         1.105251     -0.350260     -0.741768
O      11.24025      9.57669     10.72539         0.056684      0.004123     -0.593563
O       1.77737      3.73686      2.20993        -0.741581     -0.797425      0.882557
O       2.14718      3.71069     14.66113        -0.116406      0.861677     -0.058480
O       2.02977     14.92843      2.57778        -0.283141      1.205454     -0.826750
O       1.62740      0.00900     14.52682         0.237845     -0.231635      0.581424
O      13.19478      3.68417      2.37138         0.875958      0.691868     -0.010154
O      12.90185      3.78896     14.61636         0.175338     -0.053142     -0.068248
O      12.94414      0.03875      2.44555        -0.403635     -0.007691     -0.320151
O      13.25280      0.02218     14.73487        -0.098464     -1.226802     -1.202582
O       1.69172      3.68660      6.30997        -0.227419      0.441360      0.143027
O       2.01960      0.01236      6.61122        -0.089110     -0.128202     -0.525706
O      13.15151      3.64971      6.43652         0.522033      0.889889      0.073577
O      12.92571     14.95616      6.35543        -0.415937      1.017283      0.588044
O       1.64477      3.74623     10.49699        -0.142800      0.002083      0.102848
O       2.16865     14.96799     10.56712        -0.096491      1.433515     -0.515920
O      13.35776      3.66066     10.50075         0.126470      2.333817      0.306234
O      12.95007     14.99081     10.51722        -0.598126     -0.373658      0.317629
O       1.94765      7.54407      2.25975         0.507486     -0.354651      0.106950
O       1.71659      7.45678     14.53626        -0.280746      0.520197      0.430653
O      13.07186      7.54009      2.38203        -0.227384     -1.185595     -0.382607
O      13.31381      7.49546     14.62502         0.228821     -0.202059      0.289958
O       1.95378      7.47887      6.56100        -0.302497     -0.248552     -0.417385
O      13.01210      7.47843      6.47136         0.496804      0.110011      0.254229
O       2.08643      7.49542     10.68194        -0.033077      0.158009     -0.518739
O      12.96863      7.49128     10.63580        -0.361897     -0.205602     -0.529875
O       1.72990     11.29642      2.36208        -0.098833     -0.251055      0.021366
O       2.17974     11.27650     14.68173        -0.669790     -0.022901     -0.365309
O      13.27153     11.34667      2.50883        -0.503989     -0.682801     -0.864011
O      12.88192     11.22401     14.76793         0.678202      0.318405     -0.660335
O       1.84075     11.23943      6.55301        -0.551209     -0.179792      0.095297
O      13.39687     11.25172      6.36162        -0.592188     -1.208434      0.064890
O       1.50783     11.23514     10.47098         0.458120     -0.227209      0.146874
O      13.40189     11.27010     10.47824         0.104924     -0.915749      0.744409
O       5.69917      3.76701      2.40189         0.317342     -0.265564     -0.174666
O       5.44407      3.72678     14.60632         0.064000      0.017115     -0.029454
O       5.44760      0.06742      2.35875         0.357574     -1.024381     -0.131176
O       5.84810     14.97504     14.65850         0.260714      0.845764     -0.107985
O       5.76046      3.81788      6.40889        -0.127825     -0.783472     -0.131836
O       5.60655     14.98292      6.48147         0.238552      0.579945      0.209855
O       5.91130      3.76892     10.49091         0.094496     -0.013360      0.508936
O       5.41823      0.07151     10.52276        -0.404078     -1.011491     -0.422749
O       5.30551      7.51341      2.32645         0.235927     -0.562931     -0.020602
O       5.84247      7.53424     14.70342        -0.211531      0.000945     -0.485615
O       5.52448      7.55901      6.51301         0.212883     -1.010209      0.052689
O       5.37520      7.44860     10.53829         0.043723      1.115257      0.202654
O       5.76026     11.31446      2.27157        -0.247974     -0.144010     -0.374776
O       5.36784     11.27470     14.71339         0.360081     -0.322432     -0.267912
O       5.46515     11.22801      6.41844         0.026615      0.187738      0.493632
O       5.92768     11.28036     10.65951         0.097163     -0.304118     -0.144891
O       9.16926      3.74956      2.38324         0.073036     -0.098207      0.362422
O       9.49856      3.66699     14.63233         0.145315     -0.256796      0.287035
O       9.51981      0.01551      2.26911        -0.225556     -0.169884      0.565214
O       9.22409     14.93207     14.81747        -0.072881      0.134919     -1.040308
O       9.43892      3.71820      6.53052        -0.575232      0.807558     -0.273317
O       9.41264     14.85289      6.43009         0.193823      0.693401      0.044699
O       9.15505      3.70013     10.40732         0.102696      0.922385      0.047203
O       9.76048     14.92303     10.45538        -0.349097      1.554179      0.316260
O       9.44111      7.41445      2.30404         0.390903      0.952330      0.180355
O       9.20857      7.41711     14.52619         0.037175      0.002320      0.307438
O       9.40139      7.54874      6.53033        -0.060554     -0.540065     -0.315195
O       9.52341      7.46237     10.66654         0.397913     -0.190702     -0.027770
O       9.23186     11.21849      2.15610        -0.476771     -0.485151      0.126331
O       9.59266     11.18193     14.64083        -0.432545      1.460940     -0.001456
O       9.44765     11.15543      6.56842        -0.792090      0.049903     -0.258090
O       9.01953     11.25983     10.65509         0.327815     -0.239060      0.036381
