  # total energy = -7864.47091008 
CRSYTAL
PRIMVEC
    15.010000000000000    0.0000000000000000    0.0000000000000000
     0.0000000000000000   15.010000000000000    0.0000000000000000
     0.0000000000000000    0.0000000000000000    16.400000000000000
PRESSURE
16.262 15.9593 7.17319 -0.076311 0.03439 -0.011183
PRIMCOORD
320 1
Pb       3.79977      3.65109      4.21498        -0.270457      0.870804     -0.539338
Pb       3.63419      3.75536     16.36592         0.409450     -0.523528      0.847278
Pb       3.74400     14.97324      4.16177        -0.486752      0.216412      0.144530
Pb       3.86014     14.95619      0.06768        -0.433826     -0.029201     -0.279285
Pb      14.91752      3.83010      4.16044         0.649345     -1.065098      0.273114
Pb      14.88928      3.61519      0.06949         0.154901      0.169117     -0.281018
Pb      14.89676      0.03845      4.29934         0.157159     -0.293014     -0.403722
Pb       0.03482     14.94304      0.16131        -0.655729     -0.062113     -0.360829
Pb       3.46779      3.75861      8.27600         0.926127     -0.502264     -0.247754
Pb       3.68747      0.13853      8.20443        -0.130890     -0.421852     -0.266098
Pb      14.80300      3.79334      8.34707         0.410838     -0.031463     -1.025998
Pb      14.81916     14.99223      8.19554         1.115616     -0.043805     -0.022596
Pb       3.69425      3.68108     12.38032        -0.005984      0.083096     -0.398069
Pb       3.62723     14.95355     12.36801         0.495119      0.268506     -0.326910
Pb      14.91283      3.79523     12.40157        -0.056894     -0.012715      0.284049
Pb      14.99008     14.97105     12.32953        -0.281110      0.053876      0.204216
Pb       3.87007      7.49494      4.18204         0.235837     -0.038429      0.433518
Pb       3.78295      7.54602      0.07598        -0.692875     -0.252480     -0.191809
Pb       0.14390      7.51919      4.19357        -0.609062      0.582299     -0.071134
Pb      14.99507      7.45764      0.05349         0.289171     -0.393349      0.039601
Pb       3.73604      7.52300      8.25705        -0.032055     -0.238316     -0.008164
Pb       0.05230      7.54658      8.36930        -0.259572     -0.139923     -0.756861
Pb       3.61598      7.44704     12.30697         0.496050      0.237201      0.127201
Pb      14.88561      7.45439     12.30118         0.023769      0.067252      0.279079
Pb       3.86788     11.06610      4.30842        -0.070328      0.233134     -0.493958
Pb       3.77427     11.16087      0.08063        -0.031840      0.180845     -0.330692
Pb       0.17044     11.11437      4.15158        -0.550281      0.596889      0.329215
Pb       0.08097     11.31475      0.14761        -0.606952     -0.124857     -0.210039
Pb       3.75804     11.28056      8.25114         0.209198      0.141762     -0.257807
Pb       0.10618     11.27549      8.19548        -0.785051     -0.044243      0.303182
Pb       3.73661     11.22892     12.25841         0.099997     -0.352894      1.107613
Pb       0.02282     11.28172     12.30814        -0.371300     -0.253880     -0.099997
Pb       7.42180      3.86853      4.01808         0.093332     -0.382110      0.639109
Pb       7.46484      3.69252      0.02791        -0.256425      0.046693      0.233210
Pb       7.51379     14.88770      4.13068         0.427928      0.135076      0.160594
Pb       7.44111     14.90096      0.03269         0.280360      0.075667     -0.684696
Pb       7.37751      3.73050      8.25813         0.370937     -0.386286     -0.790751
Pb       7.43583      0.20359      8.23264        -0.271338     -0.550444     -0.590486
Pb       7.28639      3.81101     12.39888         0.891725     -0.179717     -0.329409
Pb       7.43378     14.94496     12.27003         0.040144      0.259414      0.613179
Pb       7.61344      7.46401      4.10694        -0.351521     -0.006737      0.152956
Pb       7.52018      7.42942     16.31884         0.348906      0.309850      0.308330
Pb       7.56586      7.38208      8.33443        -0.338927      0.148971     -0.679111
Pb       7.44209      7.62382     12.30683         0.521868     -0.484970     -0.211056
Pb       7.66381     11.08868      4.20631        -0.520315      0.774553     -0.038393
Pb       7.46717     11.26213     16.39163         0.436327     -0.114335     -0.269157
Pb       7.64652     11.30750      8.15796        -0.370060      0.683558     -0.484003
Pb       7.47877     11.35808     12.14095         0.238381     -0.741200      0.948029
Pb      11.11055      3.83851      4.15887         0.591932     -0.642206      0.283042
Pb      11.26508      3.76336      0.06835         0.392819     -0.369220     -0.170800
Pb      11.28382     14.91957      4.10197        -0.352523      0.144530     -0.253419
Pb      11.27778     14.96889      0.06889         0.586937     -0.498626      0.082128
Pb      11.20393      3.70267      8.36312        -0.666172      0.274018     -1.108645
Pb      11.17966      0.04077      8.25210        -0.108646      0.087900     -0.157740
Pb      11.11178      3.72607     12.33493         0.642954      0.248607      0.655847
Pb      11.19571     14.99451     12.45177         0.135179      0.395373     -0.284223
Pb      11.43039      7.48757      4.19105        -0.302341      0.083509     -0.158058
Pb      11.23755      7.43282      0.08036         0.185478     -0.273038     -0.484307
Pb      11.24885      7.45145      8.29243         0.564735     -0.129843     -0.466558
Pb      11.14923      7.43416     12.31124         0.170255      0.208644     -0.117698
Pb      11.34856     11.10129      4.11472        -0.109937      0.696329      0.566738
Pb      11.28937     11.15189      0.01443        -0.036901      1.051122     -0.536021
Pb      11.33717     11.36712      8.30977        -0.163814     -0.309846     -0.338676
Pb      11.16298     11.25045     12.30678         0.478266     -0.333062      0.074353
Ti       1.86155      1.76900      2.11066         0.071104      0.534658     -0.263548
Ti       1.82449      1.80150     14.36764        -0.426152      0.481557      0.495816
Ti       1.97486     13.08596      2.11965        -1.173287      0.715097      0.681061
Ti       1.88844     13.08782     14.38281         0.043045     -0.272531      0.228754
Ti      13.15339      1.78332      2.19063        -0.986865      0.198953     -0.648380
Ti      13.10086      1.81161     14.34344         0.103450     -0.174090      0.461834
Ti      13.16661     13.00455      2.26341         0.337273      1.071214     -1.770102
Ti      13.21618     13.12873     14.34402        -1.679886     -0.696198      0.665070
Ti       1.78886      1.90549      6.12627        -0.644094     -0.730100     -0.156785
Ti       1.80366     13.08982      6.09692         0.274148      1.604409     -0.622396
Ti      13.04654      1.89435      6.28487        -0.416331      0.518720     -1.299757
Ti      13.06125     13.10457      6.24441         0.135570     -0.053243     -0.583392
Ti       1.73667      1.89869     10.38079         1.065018     -0.806102     -0.964477
Ti       1.87775     13.12369     10.22287        -0.627124      0.579901      0.200765
Ti      13.06652      1.89890     10.26474        -0.650746     -0.755608      0.388665
Ti      13.11122     13.18159     10.37868         0.513433     -1.719407     -0.591681
Ti       1.93145      5.56852      2.13220         0.596196     -0.339837     -0.315932
Ti       1.87165      5.58971     14.34506        -0.739461      1.191597      0.192269
Ti      13.21265      5.54813      2.24622        -0.695776      0.246255     -1.923689
Ti      13.08106      5.59376     14.45146         0.178463      0.484597     -0.472111
Ti       1.87142      5.64792      6.12964        -0.049516     -0.255808      0.719772
Ti      13.16084      5.61033      6.14331        -0.916898      0.595268      1.410080
Ti       1.80419      5.61954     10.24994         0.691204      0.149441     -0.330616
Ti      13.09508      5.60269     10.31191        -1.496485      0.713964     -0.132532
Ti       1.93845      9.32078      2.18992        -0.178729      0.176528     -0.911817
Ti       1.75651      9.36341     14.39577         1.377773     -1.139508     -0.087556
Ti      13.18416      9.34225      1.99213         0.287906     -0.679977      0.534760
Ti      13.11407      9.38328     14.28057         0.144646      0.124047     -0.070633
Ti       1.89710      9.39914      6.31546        -0.146083     -1.698396     -0.703644
Ti      13.16893      9.38660      6.25614         0.350491     -0.615249     -0.166746
Ti       1.89538      9.36634     10.39497         0.250381      0.107482     -0.522267
Ti      13.13118      9.38899     10.25316        -0.264691      0.430569      1.227713
Ti       5.62144      1.80666      2.07325         0.063545      1.791100     -0.700326
Ti       5.60437      1.82736     14.39340         0.810770     -0.566192      0.180139
Ti       5.65237     13.11310      2.16567        -0.662759     -0.408599     -0.761932
Ti       5.60376     13.02615     14.32287         0.613951      1.334221     -0.147303
Ti       5.53266      1.89819      6.07820         0.450172     -0.687738      1.307783
Ti       5.54766     13.13411      6.06665         1.035331      0.494169      2.018206
Ti       5.51934      1.85142     10.32768         0.332332      0.565904     -0.714166
Ti       5.57141     13.14265     10.21276         0.812337      0.074870     -0.429757
Ti       5.65732      5.69355      2.13517        -0.743534     -1.836888     -0.727056
Ti       5.55706      5.62744     14.37456         0.554673     -0.549963     -0.396872
Ti       5.62163      5.63267      6.30288         0.475116     -0.278799     -0.853686
Ti       5.57903      5.58865     10.23730        -0.287187      0.683536     -0.022015
Ti       5.69960      9.38643      2.03587         0.245017      0.266562      0.936339
Ti       5.58097      9.33488     14.33497         0.073230      0.866942     -0.501298
Ti       5.69857      9.39646      6.30585        -0.004043     -0.839974     -0.852849
Ti       5.70529      9.40366     10.22476        -1.056009     -1.136997      0.482550
Ti       9.41924      1.82063      1.99829        -0.370823     -0.027400      0.302840
Ti       9.36232      1.80528     14.40140        -0.567506      0.331092     -0.036252
Ti       9.36453     13.03434      2.08170         0.642808      0.781871     -0.225374
Ti       9.43079     13.13720     14.30870        -0.683106     -0.744208      0.493696
Ti       9.32825      1.88717      6.04617        -0.397209      1.183121      1.999054
Ti       9.35223     13.19371      6.19175        -0.849557     -0.529646     -0.622777
Ti       9.29324      1.88674     10.33337        -0.653183      0.159340     -0.592597
Ti       9.41523     13.17414     10.26113        -1.366537     -0.044703     -0.481910
Ti       9.45390      5.58657      2.05421        -0.355774      0.736304      0.298956
Ti       9.32159      5.59361     14.33317         0.074038      0.135237     -0.443474
Ti       9.39831      5.63512      6.20949        -0.831631     -1.174871     -0.163962
Ti       9.33079      5.57396     10.23326        -0.146619     -0.086549      0.715291
Ti       9.49207      9.36215      2.07432        -1.100219     -0.941919     -0.146740
Ti       9.38853      9.42131     14.32783        -0.139692     -0.519121     -0.023204
Ti       9.49227      9.38104      6.11271         0.036066     -0.124084      1.778420
Ti       9.43148      9.35374     10.11159         0.757669      0.210369      1.252445
O       1.76679      1.78335      0.20179         0.312771      0.500669      0.728481
O       1.83628      1.89703     12.48942        -0.378421     -0.304702      0.233670
O       1.96971     13.13775      0.26210        -0.759006     -0.495944     -0.640085
O       1.95041     13.07306     12.52819        -0.322636      0.233919      0.203658
O      13.10838      1.84270      0.26063         0.373359     -0.026491      0.143606
O      13.19092      1.81884     12.51314        -0.333353      0.012389     -0.754375
O      13.26184     13.20760      0.25645        -0.418094     -0.904192      0.627250
O      13.18182     13.06484     12.47660        -0.084147      0.443469     -0.633946
O       2.01630      1.91657      4.27055        -0.767049     -0.806240      0.056102
O       1.87702     13.13025      4.20524         0.205447      0.248595      1.486410
O      13.05158      1.82727      4.37861        -0.008391      0.139161      0.076299
O      13.12732     13.16502      4.34398        -0.462978     -0.422640     -0.294689
O       1.95087      1.81770      8.51460        -0.720522      0.705274      0.035318
O       1.65824     13.05444      8.44643         0.601502      0.124137     -1.034441
O      13.12429      1.86503      8.36509        -0.327931     -0.168211      1.303764
O      13.16656     13.18205      8.46639        -0.349280     -0.289540     -0.128466
O       1.97313      5.65740      0.30131         0.265867     -0.203182     -0.598116
O       1.72408      5.61032     12.51167         0.569734      0.162007     -0.455046
O      13.00752      5.55752      0.19904         0.515644      0.245955     -0.261289
O      13.03593      5.54515     12.40231         0.303182      0.052595      1.142108
O       1.75264      5.69756      4.28817         0.026352     -0.134150     -0.029235
O      13.26631      5.55741      4.27810        -0.469435      0.387018     -0.699824
O       1.86235      5.71317      8.37013        -0.230186     -0.820799      0.486807
O      12.94898      5.56833      8.44782         0.781873      0.081814      0.041391
O       1.90839      9.40786      0.25506        -0.210854     -0.192641      0.359885
O       1.84298      9.19954     12.53465        -0.124192      0.768309     -0.781685
O      13.17942      9.27371      0.19302        -0.170368      0.340814     -0.565329
O      13.07101      9.38881     12.46208         0.742091     -0.023043     -0.267441
O       1.89395      9.30838      4.32610         0.151189      0.113871      0.393966
O      13.16116      9.37162      4.42313        -0.196953      0.087237     -1.044613
O       1.86787      9.45625      8.51087         0.099497     -0.250397     -0.908210
O      13.14486      9.31189      8.49676        -0.089536      0.257816     -1.942849
O       5.63981      1.87778      0.13539        -0.143571     -0.245318      0.727609
O       5.59965      1.93077     12.52628         0.051316     -0.355309     -0.321089
O       5.65072     13.09925      0.27909        -0.050863      0.225810     -0.389548
O       5.54786     13.12978     12.44984        -0.018563     -0.280704      0.305020
O       5.45676      1.85355      4.24767         0.319194     -0.182475     -0.451099
O       5.58455     13.00873      4.26876        -0.448288      0.452575     -0.837531
O       5.33794      1.83242      8.46158         0.837271      0.106370      0.275510
O       5.77633     13.18178      8.44759        -0.386131     -0.494621     -0.369639
O       5.60524      5.51635      0.23015         0.001969      0.581182     -0.157144
O       5.54901      5.54911     12.48503         0.068252      0.360813      0.469316
O       5.74332      5.70776      4.37744        -0.287437     -0.360625     -0.823381
O       5.67687      5.68230      8.35866        -0.709369     -0.003279      0.802404
O       5.66132      9.34807      0.20575        -0.142609     -0.086926     -0.360916
O       5.56759      9.35037     12.47097         0.499940      0.002240      0.317351
O       5.58664      9.43462      4.27377        -0.023269     -0.054821      1.119638
O       5.52391      9.36878      8.42575         0.580790      0.236362     -0.716969
O       9.50885      1.78441      0.16004        -0.719722      0.283420      0.661246
O       9.33718      1.70895     12.55788         0.110884      0.238606     -0.768181
O       9.43571     12.93693      0.22056        -0.416529      0.508903      0.574047
O       9.40899     13.16243     12.42801        -0.277076      0.021395      0.089352
O       9.46763      1.98581      4.30595        -0.314261     -0.149276     -1.692488
O       9.36126     13.14526      4.34106         0.069498     -0.115446     -0.292771
O       9.21078      2.04507      8.49425         0.455851     -1.104230      0.369036
O       9.31421     13.14489      8.36776         0.062469      0.247479      0.406321
O       9.37926      5.67962      0.22094         0.033637     -0.356083     -0.514938
O       9.27606      5.57481     12.49220         0.544723      0.205961      0.202498
O       9.34479      5.64470      4.28889         0.005206     -0.376817      0.337698
O       9.30380      5.48965      8.40247        -0.023753      0.652961     -0.175421
O       9.42781      9.44932      0.25128         0.269342     -0.240389     -0.147389
O       9.47095      9.39368     12.51491        -0.707873     -0.097783     -0.617715
O       9.48965      9.38194      4.31077         0.104920     -0.404270     -0.748436
O       9.46185      9.34376      8.33610        -0.253788      0.174309     -0.709027
O       3.73617      1.38407      2.16186        -0.449530      0.273691      0.225278
O       3.70455      2.07441     14.42864         0.057744      0.342655      0.667632
O       3.74363     13.63462      2.18633         0.307719     -0.606257      0.538925
O       3.74309     12.72349     14.56212        -0.471192      0.434693      0.186773
O      14.91466      2.18930      2.47327         1.722086     -0.171644     -0.685276
O      15.00130      1.55028     14.58074        -0.376493      0.123296     -0.058681
O       0.01308     12.63300      2.33908        -0.625120      0.612418     -0.381994
O      14.96177     13.47996     14.53086         2.329848     -0.353760      0.098988
O       3.55847      1.73301      6.37094         2.079223     -0.487772      0.192615
O       3.70582     13.16293      6.43443        -0.926047      0.103709     -0.091000
O      14.89650      2.12804      6.49423         1.379004     -0.463579     -0.387444
O      14.92058     13.00676      6.24654         0.953597     -0.418685      0.633932
O       3.68924      1.63677     10.51912        -0.593637     -0.310143      0.744447
O       3.72915     13.48933     10.23644        -0.180571     -0.111551      0.826795
O      14.91588      2.30043     10.46412         0.026323     -0.705193     -0.005851
O       0.02517     12.81662     10.47528        -1.098030     -0.159575      0.467386
O       3.77722      5.97208      2.40218        -0.001957     -0.231925     -0.185779
O       3.74375      5.18201     14.53087        -0.068870      0.463335     -0.048062
O       0.05657      5.28577      2.12222        -0.505435     -0.365388      0.648579
O       0.03411      5.89005     14.58720        -1.471558      0.275455      0.134903
O       3.73007      5.84823      6.27742        -0.515566     -0.374683      0.284219
O      14.92655      5.40939      6.50148         1.542638      0.372734     -0.251838
O       3.68864      5.99484     10.40993         0.489849     -0.456625     -0.097565
O      14.91212      5.32218     10.47010         0.684592      0.055940     -0.184388
O       3.77692      9.01828      2.24697         0.082573      0.437955      0.071035
O       3.76364      9.73266     14.53819        -0.096594     -0.338118      0.348101
O      14.96848      9.65301      2.38436         0.869966     -0.209996     -0.565031
O      14.97760      8.97474     14.58324        -0.000040      0.220538     -0.140994
O       3.75576      9.33851      6.46881        -0.022025     -0.244455     -0.233535
O       0.01307      9.40419      6.40886         0.487475      0.166007      0.496849
O       3.72765      8.96194     10.47228         0.607797      0.601082      0.007024
O       0.03663      9.56740     10.43690        -0.842320      0.463960      0.521209
O       7.49776      2.28880      2.21876         0.646539     -0.849372     -0.010853
O       7.50851      1.40469     14.58143        -0.406499      0.722023      0.052763
O       7.43501     12.84982      2.36054         1.755947     -0.120816      0.055914
O       7.51297     13.43118     14.50951        -0.372236     -0.548394      0.119117
O       7.35176      1.95092      6.44799         0.692837      0.186401     -0.393032
O       7.43752     12.95964      6.27419         0.409345     -0.047281      0.318652
O       7.40657      2.38351     10.41705        -0.215363     -1.209996      0.365298
O       7.52488     12.82903     10.45682        -0.715826      0.046845      0.011137
O       7.54696      5.37664      2.27747        -0.425688     -0.208987     -0.063508
O       7.46113      5.95171     14.41915        -0.657756     -0.110837      0.779657
O       7.43549      5.39592      6.42447         1.238004      0.205286     -0.045152
O       7.48277      5.40327     10.43253        -1.009257     -0.464138      0.185346
O       7.54318      9.60252      2.37278         0.183561     -0.021051     -0.450608
O       7.54738      9.11739     14.60912        -1.345365     -0.283391     -0.137531
O       7.52567      9.51992      6.27595         0.463856      0.258879      0.366815
O       7.57570      9.62398     10.37439        -0.936074      0.586599      0.369242
O      11.28461      1.53100      2.18862        -1.050556     -0.180779      0.626394
O      11.23053      2.09062     14.49414         0.378817      0.079777      0.221123
O      11.21530     13.28713      2.28437         0.438577      0.465340      0.276054
O      11.24527     12.80658     14.49112         0.301017      0.019544      0.324101
O      11.17929      1.73709      6.46261        -0.123936     -0.394146      0.176451
O      11.18791     13.24021      6.49735         0.861285      0.421226     -0.074615
O      11.18646      1.46971     10.36175         0.479139      0.463003      0.470555
O      11.19590     13.53975     10.44402         0.854225     -0.302394     -0.047890
O      11.27269      5.89625      2.26517         0.615907      0.123715      0.413436
O      11.20572      5.37821     14.54744         0.249646     -0.223522      0.015945
O      11.19698      5.69568      6.38236         0.686581      0.355300     -0.159780
O      11.14785      5.80119     10.39010         1.116873      0.593787      0.488491
O      11.33855      9.00146      2.28881        -0.615348      0.179197      0.208910
O      11.29853      9.72872     14.36539        -0.623057     -0.250021      1.397267
O      11.34635      9.16760      6.37363        -2.081906      0.180978      0.241328
O      11.26482      9.13541     10.42454        -0.544103     -0.560011      0.155681
O       2.29507      3.66336      2.34492        -0.788467      0.623209     -0.563237
O       1.44409      3.80260     14.56779         0.896717     -1.833583      0.271105
O       1.28002     14.97993      2.30111         1.183566     -0.088377      0.022953
O       2.09723     14.94675     14.61126         0.350889      0.067681     -0.507328
O      12.78520      3.71702      2.31944         0.279404      0.065093      0.084609
O      13.31649      3.69698     14.57210         0.399438      0.466791      0.053352
O      13.35658     14.91117      2.31665         0.299926      0.457326      0.434648
O      12.79245     14.95978     14.53316        -0.128336      0.592620      0.057608
O       2.06188      3.75340      6.25013        -0.556451      0.631467      0.578302
O       1.58849     14.94828      6.38950         0.329906      0.596798     -0.142908
O      12.91971      3.78945      6.45859        -0.167450     -0.926722     -0.106853
O      13.24731     14.98052      6.39612        -0.249132      0.514053      0.291076
O       2.09805      3.79466     10.48299         0.057809     -0.649741     -0.020254
O       1.48378     15.00742     10.51849         0.474502      0.160714      0.073593
O      12.70326      3.70687     10.42489         0.292491     -0.430223      0.184491
O      13.36384     14.96175     10.43389         0.576983      1.715889      0.404958
O       1.55805      7.50799      2.26248        -0.004823     -0.316141      0.153655
O       2.24517      7.51950     14.49436        -0.083070     -0.895940      0.991194
O      13.44752      7.41613      2.21718         0.032051      0.643647      0.563521
O      12.84734      7.48928     14.37423        -0.149670     -0.460585      0.670171
O       1.74725      7.50543      6.46775        -0.223441     -0.030065     -0.164125
O      13.17226      7.46445      6.32071         0.402063     -0.405070      0.472446
O       1.58802      7.44047     10.36550        -0.683636      1.204905      0.684048
O      13.29988      7.49207     10.37316         0.268843     -0.546716      0.603126
O       2.13920     11.26484      2.40800         0.554838     -0.859499     -0.388233
O       1.48141     11.16562     14.57220         0.108169      1.908325     -0.017147
O      12.71926     11.17683      2.23399         0.561882     -0.203594     -0.090597
O      13.44403     11.29476     14.48361         0.313456     -1.387961      0.650500
O       1.92140     11.22357      6.36617        -0.099480      0.709219      0.315511
O      13.05058     11.22936      6.48641        -0.410211      0.643220      0.202116
O       2.22670     11.27481     10.50202        -0.520703     -0.623442     -0.003775
O      12.69237     11.24692     10.47019         0.967219      0.674615     -0.332822
O       5.28561      3.70951      2.26463         0.276831      0.475511      0.349228
O       6.01259      3.68295     14.57258        -0.690308      0.686700     -0.119493
O       6.03500      0.02730      2.19260        -0.328950     -0.805793      0.503028
O       5.35780     14.93321     14.59463        -0.249501      0.097312     -0.304677
O       5.40479      3.67845      6.45837        -0.486251      0.958439     -0.207019
O       5.65636     14.99688      6.38084        -0.340771     -0.128165     -0.236408
O       5.19396      3.79740     10.47617         0.380069     -0.160862     -0.214081
O       5.87652     14.99515     10.43443         0.118310      0.704971      0.347947
O       5.93251      7.49668      2.24911         0.053809      0.384521      0.043063
O       5.23625      7.48484     14.50721         0.501564     -0.353094      0.371601
O       5.80179      7.48261      6.36653        -0.228481      1.522587      0.398775
O       6.02296      7.52428     10.37813        -0.697538     -0.204232      0.322813
O       5.33364     11.26620      2.18909        -0.421231     -0.679624      0.393740
O       5.92933     11.24928     14.59432         0.071748     -0.799098     -0.084882
O       5.47918     11.28685      6.50965         0.091534     -0.820386     -0.233787
O       5.20578     11.21823     10.51157         1.052239      0.446699     -0.654097
O       9.81048      3.72023      2.25957        -0.852063     -0.115959     -0.417170
O       9.01609      3.70314     14.54793         0.299307      0.157797      0.100754
O       9.11574     14.97234      2.38388         0.010672      0.265128     -0.458883
O       9.67016     14.95224     14.65371         0.219952     -0.258284     -0.166308
O       9.44543      3.69573      6.51408        -0.095483      0.733567     -0.857350
O       9.09452      0.05213      6.19379         0.378952     -0.783611      0.918602
O       9.69318      3.73225     10.59251        -0.622980     -0.304524     -0.453805
O       8.91642      0.03300     10.42355         0.345239     -0.360170     -0.210569
O       9.15977      7.47724      2.26593        -0.012101      0.574887     -0.084884
O       9.62393      7.48635     14.55068         0.142678      0.271159      0.285902
O       9.18246      7.47756      6.39176         0.136977      0.534519     -0.020494
O       9.15283      7.48482     10.46724        -0.197467      0.307733     -0.154746
O       9.70409     11.21686      2.38622        -0.370653     -0.403287     -0.046412
O       9.06392     11.24345     14.56153         0.131893      0.461988     -0.096740
O       9.55868     11.27403      6.32539        -0.376172     -0.974692      0.322883
O       9.72034     11.26046     10.36495        -0.616284      0.285041      0.022326
