  # total energy = -7883.42237461 
CRSYTAL
PRIMVEC
    15.3600000000000000    0.0000000000000000    0.0000000000000000
     0.0000000000000000   15.3600000000000000    0.0000000000000000
     0.0000000000000000    0.0000000000000000    17.440000000000000
PRESSURE
2.92433 2.50925 3.36555 0.257782 0.339921 -0.017013
PRIMCOORD
320 1
Pb       3.82902      3.74510      4.33789        -0.022462      0.279826     -0.184113
Pb       3.77619      3.74741     17.40785         0.282482      0.074472     -0.232963
Pb       3.77244     15.28699      4.36725         0.172062     -0.080694     -0.209735
Pb       3.68674     15.28290     17.30129         0.764004      0.080281      0.658424
Pb       0.06013      3.72772      4.28062        -0.105370      0.291875      0.379149
Pb       0.08418      3.85242     17.41963        -0.271535     -0.318738     -0.212915
Pb       0.04183     15.32250      4.26734        -0.007117      0.062557      0.476109
Pb      15.27753     15.26792     17.39620         0.345303      0.589174     -0.208444
Pb       3.73600      3.80355      8.76038         0.223631      0.173762     -0.660258
Pb       3.85258      0.03410      8.61605        -0.308376     -0.177490      0.079795
Pb      15.29176      3.95560      8.70916        -0.251432     -0.562739     -0.104789
Pb      15.20247      0.03017      8.73669         0.326890      0.327529      0.201411
Pb       3.77693      3.77374     12.96625         0.851774      0.623833      0.510321
Pb       3.73271      0.03192     12.90865         0.369323     -0.222534      0.137130
Pb       0.04081      3.77168     13.07709        -0.368324     -0.429587      0.055608
Pb      15.32447     15.27773     13.03550         0.170244      0.460141      0.031421
Pb       3.81983      7.65055      4.33093         0.282670     -0.175685     -0.147063
Pb       3.77800      7.54063     17.33315         0.083300      0.449928      0.290165
Pb       0.04785      7.80442      4.29536         0.090692     -0.584485      0.153123
Pb      15.20149      7.58934     17.37930         0.681285     -0.065990      0.456999
Pb       3.80233      7.73342      8.69239         0.299176     -0.194668     -0.337333
Pb      15.35164      7.67297      8.68096        -0.275467      0.116333      0.048001
Pb       3.80379      7.57312     12.95155         0.005638      0.067049      0.115557
Pb      15.32609      7.56809     13.10389         0.203800      0.594428     -0.406967
Pb       3.83068     11.54450      4.31839        -0.010822     -0.246849      0.030417
Pb       3.80702     11.56471     17.34795         0.374141     -0.385419      0.103313
Pb      15.25686     11.53891      4.33861         0.632317     -0.125198     -0.123393
Pb      15.25507     11.55061     17.30700         0.145129     -0.206412      0.255068
Pb       3.85974     11.50537      8.69487        -0.200253      0.279367     -0.282609
Pb      15.26051     11.46827      8.72513         0.478587      0.098148      0.629085
Pb       3.83013     11.43097     12.98097        -0.183413      0.282230      0.013312
Pb       0.11617     11.52886     13.02318        -0.213614     -0.384531      0.327929
Pb       7.70939      3.68727      4.30275        -0.065742      0.549078      0.732245
Pb       7.55282      3.79324      0.02670         0.282205      0.029589     -0.335596
Pb       7.74127     15.26457      4.37340        -0.297919      0.358668      0.602137
Pb       7.61914     15.35586     17.39806        -0.094226     -0.428797      0.247956
Pb       7.64783      3.87167      8.61525         0.508590     -0.151132      0.280910
Pb       7.63645     15.35470      8.67354         0.333441      0.029915     -0.322914
Pb       7.79481      3.93417     13.01393        -0.222930      0.125058      0.910310
Pb       7.56846      0.14882     12.95254         0.068625     -0.776017      1.088412
Pb       7.74281      7.59260      4.32770        -0.375132      0.068296     -0.221825
Pb       7.52904      7.73645     17.39368         0.348379     -0.264374      0.372848
Pb       7.70137      7.66542      8.67429         0.089926      0.164763     -0.187156
Pb       7.64060      7.69981     12.98024         0.473565     -0.132984      0.361116
Pb       7.69088     11.47648      4.34657        -0.271594     -0.513315      0.107630
Pb       7.62400     11.49340     17.40980        -0.505244      0.486345     -0.468764
Pb       7.63061     11.57144      8.63605        -0.021829     -0.026394      0.350220
Pb       7.66527     11.48362     12.93647         0.264073      0.188393      0.479314
Pb      11.41886      3.76878      4.23243         0.519862      0.595335      0.747056
Pb      11.62767      3.80653      0.02801        -0.422214      0.284727      0.134256
Pb      11.52905     15.21382      4.34497         0.132634      0.401703      0.207953
Pb      11.36309     15.27284      0.07247         0.220371      0.330864     -0.128188
Pb      11.36727      3.91347      8.64182         0.711217     -0.492811      0.834783
Pb      11.47766      0.02677      8.66868         0.048089      0.010852      0.374456
Pb      11.59658      3.73749     13.12956        -0.006305      0.104654      0.082387
Pb      11.56830     15.34596     12.97092        -0.079509      0.384529      0.627925
Pb      11.45578      7.64728      4.22935         0.258777     -0.021422      0.477781
Pb      11.51470      7.65777     17.43922         0.029272     -0.084159     -0.053576
Pb      11.52236      7.70074      8.65649         0.323995      0.103822      0.172123
Pb      11.45838      7.60097     13.10412        -0.113574      0.130120      0.012254
Pb      11.54721     11.48179      4.23790        -0.005954     -0.137828      0.284240
Pb      11.37325     11.45475     17.39478         0.378060      0.068469     -0.267684
Pb      11.58952     11.51269      8.59273        -0.307506     -0.005483      1.008550
Pb      11.56815     11.48100     13.02288        -0.508368      0.017351      0.612000
Ti       1.97209      1.84258      2.32514         0.127592      0.784517     -1.443629
Ti       1.92641      1.89765     15.39146        -0.456315     -0.162227      2.084921
Ti       1.84953     13.34285      2.29944         1.369111      0.566009      0.596363
Ti       1.83666     13.39835     15.39109         0.192770      0.443041     -0.838657
Ti      13.52442      1.87561      2.39586        -0.455990      0.914260      0.294877
Ti      13.42533      1.88717     15.57365         0.633031      0.167337     -2.143503
Ti      13.44442     13.47131      2.31426        -0.400719     -0.489145      0.830810
Ti      13.33068     13.41295     15.41656         1.303546      0.029910      0.088684
Ti       1.88643      1.90303      6.70146        -0.077012      0.291028      0.454610
Ti       1.84040     13.42732      6.74200         1.213869     -0.112313      1.120907
Ti      13.45265      2.00745      6.68763         0.042248     -1.041011      1.289855
Ti      13.47669     13.48553      6.75367        -0.771969      0.155786     -0.345908
Ti       1.93180      1.97760     10.98638        -0.841734     -0.938668     -0.174467
Ti       1.91418     13.44635     11.00606         0.337358     -0.562074     -1.434267
Ti      13.39507      1.88404     11.10272         1.183367      0.297470     -0.631355
Ti      13.44441     13.38658     11.17330         0.478634      0.513955     -0.746017
Ti       1.87966      5.74565      2.35300         0.543114     -0.434030      0.415051
Ti       1.85233      5.74505     15.38073         0.418405     -0.455652      0.374632
Ti      13.44758      5.71765      2.41782        -0.538399     -0.381229     -1.053525
Ti      13.36513      5.75770     15.38737         0.778302     -0.232480      0.701377
Ti       1.89667      5.74611      6.69191         0.441329     -0.005225     -0.343879
Ti      13.41671      5.78160      6.62268         0.610265     -0.009506      0.813703
Ti       1.85607      5.75225     11.00814         0.928125      0.624376      1.685390
Ti      13.46729      5.69086     11.18327         0.033225      0.304759     -0.027002
Ti       1.94510      9.60085      2.25024         1.091808     -0.132333      0.264577
Ti       1.79961      9.59365     15.46682         1.060820     -0.430750     -0.793154
Ti      13.49755      9.56602      2.30859        -0.506186      0.253649      0.305684
Ti      13.40815      9.55494     15.36948        -0.332067      0.504740      0.300657
Ti       1.94151      9.64292      6.73395         0.506264     -0.018270     -0.675167
Ti      13.51513      9.63517      6.65266        -1.032923     -0.884127      1.166889
Ti       1.94694      9.60169     11.05042        -0.845594     -0.276419      2.168946
Ti      13.44759      9.53646     11.18617         1.454523     -0.012870     -0.333418
Ti       5.86498      1.80254      2.49744        -1.754113     -0.117296     -0.956729
Ti       5.77352      1.84212     15.44787         0.426411      0.591732     -1.875528
Ti       5.78798     13.38792      2.44382        -1.351309     -0.073979     -1.957221
Ti       5.71040     13.39265     15.29434         0.844185      0.127181      2.477626
Ti       5.76320      2.02193      6.71108         0.234129     -0.682247     -0.352073
Ti       5.72020     13.50234      6.68823        -0.089848     -0.713434      0.536657
Ti       5.82281      1.96442     10.98083        -1.056039     -0.019563     -0.110089
Ti       5.77304     13.44163     11.03527         0.066544     -0.039247      0.783180
Ti       5.70811      5.65581      2.36265         0.053971      0.791037     -0.382152
Ti       5.71229      5.72340     15.40429         0.333183     -0.301661      0.960695
Ti       5.73253      5.74920      6.69653         0.219425      0.536381     -0.031490
Ti       5.84378      5.73965     10.98925        -1.213139      0.174201      2.221711
Ti       5.76145      9.49030      2.39255         0.017864      1.209780      0.148343
Ti       5.66792      9.55406     15.28696        -0.187636      0.795589      2.107894
Ti       5.82624      9.58440      6.69018        -0.396794     -0.106099      0.784459
Ti       5.78569      9.61797     11.02618        -0.040027      0.138620      0.247447
Ti       9.70469      1.87607      2.42748        -0.757900      0.015823     -0.504782
Ti       9.66060      1.91211     15.52372        -0.670935      1.090467      0.780007
Ti       9.54093     13.40394      2.41711         0.202872      0.390942     -0.448331
Ti       9.60073     13.51643     15.32835        -1.079873     -0.796911      1.280651
Ti       9.66016      1.86426      6.71053        -1.157060      0.810425     -0.404186
Ti       9.60662     13.41778      6.69792         0.007355      0.438537      0.741630
Ti       9.55950      1.92031     11.12752         1.666615      0.650145     -0.270619
Ti       9.61904     13.48807     11.10469        -0.351328     -0.259577     -0.919317
Ti       9.53442      5.73027      2.29272         0.707371     -0.022091     -0.019308
Ti       9.57022      5.78646     15.60017        -0.551187     -0.527724     -0.954337
Ti       9.64689      5.76467      6.69690        -0.786665     -0.281426      0.247218
Ti       9.72835      5.76468     11.05164        -0.181223     -0.188382     -0.136588
Ti       9.62945      9.56753      2.31719        -0.927469     -0.177303      2.600730
Ti       9.51723      9.60881     15.44882         0.705094     -0.005780     -1.488123
Ti       9.64000      9.63335      6.71475         0.105063     -0.312588     -0.852581
Ti       9.68847      9.62326     11.06689        -0.468555     -0.379674      0.939209
O       1.87611      1.99612      0.50086         0.309972     -0.419581      1.142229
O       1.94561      1.91989     13.70379         0.131409     -0.115331     -2.835944
O       1.87241     13.39579      0.58095        -0.000689      0.122058     -1.392737
O       1.77338     13.42902     13.61236         0.478981      0.032543      0.139099
O      13.52305      1.90658      0.67453        -0.159311     -0.038855     -1.771790
O      13.48767      1.91883     13.75110        -0.467976     -0.042706      0.394144
O      13.45788     13.56491      0.60987        -0.126927     -0.314321     -1.624053
O      13.46099     13.43549     13.69837        -0.208099      0.275305     -1.326567
O       1.91185      1.88993      4.94677        -0.236750      0.212844     -1.064793
O       1.88253     13.41453      5.01381        -0.150507     -0.042338     -1.125879
O      13.57956      1.98744      4.99903        -0.189005     -0.400771     -2.167151
O      13.36781     13.52143      5.00560         0.202248     -0.354374     -0.760390
O       2.00697      1.99884      9.23979        -0.088493     -0.070684     -0.394624
O       1.96340     13.32067      9.21502        -0.162718      0.407516      0.302721
O      13.43058      1.93425      9.34759         0.195181     -0.295938     -0.759744
O      13.44928     13.38133      9.42048         0.074635     -0.075011     -1.169944
O       1.96637      5.83870      0.61208        -0.146728     -0.648491     -1.004401
O       1.92564      5.75839     13.65764        -0.222359     -0.057427     -0.962319
O      13.53817      5.73297      0.62167        -0.251181      0.188011      0.330276
O      13.38250      5.75827     13.65092         0.019747      0.182432     -1.328623
O       2.00461      5.73212      4.93165        -0.357862      0.003430     -0.012994
O      13.31637      5.81337      4.91810         0.220675      0.040104     -1.303766
O       1.89652      5.75912      9.29362        -0.199279     -0.086574     -1.352937
O      13.45726      5.69523      9.46366         0.311325     -0.031224     -1.551677
O       2.03769      9.57549      0.51350        -0.443113      0.063459     -0.303700
O       1.82738      9.69811     13.69934         0.176257     -0.429820     -0.042042
O      13.55421      9.57910      0.59762        -0.232712     -0.004490     -0.862531
O      13.43804      9.55914     13.62172        -0.140017     -0.264654     -0.694241
O       1.80028      9.83631      4.99333         0.059288     -0.997577     -0.490411
O      13.46151      9.56302      4.92331         0.299713      0.242827     -0.836538
O       1.96203      9.67998      9.38094         0.054940     -0.331681     -3.405033
O      13.50442      9.70944      9.43265        -0.231367     -0.038167     -0.894608
O       5.91640      1.88254      0.73860        -0.155183     -0.019258     -0.657615
O       5.79385      1.83854     13.62797        -0.168219      0.023931      0.881160
O       5.79753     13.40949      0.63912         0.051737     -0.377588      0.348446
O       5.75997     13.42419     13.62785        -0.090833      0.050669     -2.614725
O       5.77652      2.00061      4.94919        -0.271481      0.007414     -0.737054
O       5.64769     13.48310      4.97875         0.333182      0.120857     -1.297736
O       5.77130      2.03280      9.21099         0.011472     -0.371767      0.250481
O       5.75535     13.39211      9.31878         0.257499      0.173557     -1.944826
O       5.66012      5.66081      0.60181        -0.090420     -0.033461     -0.438835
O       5.68611      5.74032     13.70853         0.395383      0.138082     -2.059289
O       5.72623      5.79192      4.93651         0.217490     -0.067162     -0.385006
O       5.79455      5.74154      9.30391         0.171823      0.030044     -1.253696
O       5.80414      9.59387      0.66195        -0.003572      0.431557     -1.192254
O       5.72337      9.62251     13.58108         0.012796     -0.018414     -1.360756
O       5.89785      9.47955      4.98871        -0.084921     -0.133089     -1.519578
O       5.78796      9.63012      9.28575        -0.020102      0.013080     -0.601884
O       9.63215      1.80558      0.69200         0.231420      0.075818     -0.504029
O       9.71036      2.00916     13.81041        -0.149711     -0.105099     -1.884184
O       9.58788     13.56306      0.68818         0.155687     -0.471405     -0.791450
O       9.60909     13.49638     13.63631         0.168623     -0.000144     -1.828593
O       9.62325      2.01636      4.97426         0.058734     -0.314128     -1.505242
O       9.54136     13.54384      4.94378         0.505129     -0.573139     -0.726746
O       9.71677      1.87893      9.42503        -0.606337     -0.142021     -1.629248
O       9.50238     13.60124      9.32762         0.364648     -0.005151      0.312357
O       9.67511      5.86563      0.57561        -0.149569     -0.189353     -1.302387
O       9.53550      5.77673     13.80921         0.387743     -0.172695     -0.027689
O       9.50310      5.71930      4.96609         0.450147      0.061545     -0.738190
O       9.68239      5.78762      9.29698         0.064028      0.014520     -0.466327
O       9.63749      9.61661      0.65074        -0.083596      0.054704     -3.246876
O       9.59054      9.55622     13.66937         0.017762      0.055904     -0.092588
O       9.72091      9.72143      4.94491        -0.476145     -0.243385     -0.051786
O       9.72583      9.46259      9.37783        -0.201826      0.159181     -1.785337
O       3.84412      1.88914      2.68082        -0.433365      0.325959      0.540155
O       3.86863      1.81626     15.82033         0.238321      0.364524      0.226105
O       3.83321     13.33114      2.72050        -0.960462      0.007476      0.416228
O       3.76526     13.49778     15.71382         0.442978     -0.234280      0.203994
O       0.02710      1.88214      2.74389         0.449631     -0.189634      0.401755
O       0.00639      1.98194     15.76465        -0.372601     -0.170805      0.666554
O      15.31295     13.38970      2.67514         0.258210      0.254622      0.542306
O      15.31324     13.54043     15.74999         0.004057     -0.467931      0.686176
O       3.80260      2.04003      6.98564         0.349012      0.123122      0.663664
O       3.86325     13.41102      7.07722        -0.314707      0.100204      0.421231
O      15.34983      1.84937      7.11734        -0.009893      0.145238      0.383773
O      15.34771     13.39597      7.08114        -0.027587      0.170717      0.309933
O       3.85113      1.88602     11.40683         0.177429     -0.043806      0.043066
O       3.87631     13.43363     11.35182        -0.699971      0.175990      0.591493
O       0.05790      1.92173     11.35734         0.170361      0.103852      0.524675
O       0.02360     13.45145     11.45012        -0.134674     -0.230682      0.144190
O       3.82043      5.74249      2.79406        -0.061408     -0.770765      0.104353
O       3.82579      5.70026     15.69005        -0.412070      0.337754      0.869869
O      15.33112      5.74463      2.71451         0.303911      0.435461      0.540513
O      15.23919      5.79752     15.70893         1.765752     -0.341586      0.521279
O       3.88237      5.79988      7.06392        -0.775177     -0.461221      0.418590
O      15.34721      5.85452      7.01862        -0.210614     -0.481625      0.375737
O       3.81429      5.76950     11.45671         0.581846     -0.279306     -0.200205
O      15.35013      5.70702     11.53238         0.994789     -0.045231      0.187338
O       3.87880      9.65988      2.75094        -1.495101      0.201697      0.343603
O       3.76531      9.68733     15.75552         0.561853     -0.661377     -0.005102
O       0.05330      9.59081      2.73141        -0.458665     -0.411567      0.082498
O      15.30777      9.67878     15.77477         0.474232     -0.776689      0.518875
O       3.88900      9.56693      7.04840        -0.386228     -0.029346      0.377889
O       0.02358      9.61466      7.11049        -0.650546     -0.090201      0.196102
O       3.84799      9.60527     11.40737         0.310307      0.186220      0.384341
O       0.03134      9.56937     11.40164        -0.076418      0.273152      0.679522
O       7.65495      1.74836      2.88630         1.246150      0.472503      0.016475
O       7.71723      1.90039     15.89574        -0.440007      0.305068      0.041111
O       7.64323     13.48908      2.78085         0.882798      0.054167      0.469491
O       7.71825     13.36951     15.73069        -0.482553      0.004434      0.243488
O       7.71546      1.91846      6.97029        -0.771935      0.114379      0.907084
O       7.71654     13.48794      7.12082        -0.770426      0.127632      0.023378
O       7.70731      2.05350     11.51802        -0.656332     -0.278837     -0.416302
O       7.73919     13.35293     11.46263        -0.498012      0.336915      0.078631
O       7.67738      5.78428      2.55620        -0.814297      0.381840      0.814963
O       7.65162      5.77740     15.87290         0.042627     -0.408527      0.345533
O       7.77401      5.71364      7.15034        -0.682392      0.485834      0.010863
O       7.72024      5.72674     11.52127        -0.420553     -0.124681     -0.592399
O       7.65357      9.45466      2.76068         1.142609      0.314493      0.342664
O       7.65824      9.65190     15.75161        -0.583054      0.305796      0.373222
O       7.73887      9.60803      7.13933        -0.063629     -0.372751      0.161727
O       7.71239      9.58210     11.43818        -0.057921      0.369423     -0.001208
O      11.58733      1.91914      2.83993        -0.679584     -0.385594     -0.263109
O      11.53990      1.98581     15.93270         0.205312     -0.680743      0.424234
O      11.52371     13.37766      2.70505        -0.256798      0.458596      0.418058
O      11.51741     13.36387     15.73146        -0.493401      0.422737      0.776929
O      11.48672      1.99728      7.03044         1.191592     -0.682977      0.472967
O      11.51621     13.48247      7.20024        -0.400560     -0.354257     -0.406153
O      11.57530      1.84869     11.36791        -1.262260     -0.074976      1.173552
O      11.54356     13.49757     11.46511        -0.595117      0.192928      0.311332
O      11.47438      5.65422      2.64935         0.403069      0.055610      0.658967
O      11.57765      5.88144     15.82921        -1.626461      0.192485      0.533042
O      11.60036      5.78906      7.15850        -1.061362     -0.244183     -0.188772
O      11.64244      5.75145     11.47126        -2.169229      0.363942      0.596069
O      11.50506      9.71913      2.68991         0.364383     -0.501260      0.100167
O      11.54064      9.48805     15.79325        -0.626971      0.577155      0.522933
O      11.54336      9.57265      7.02958         0.442309      0.478832      0.526103
O      11.58651      9.56764     11.43777        -1.043760     -0.236582      0.691004
O       1.83340      3.78528      2.68193         0.434991      0.164278      0.256312
O       1.91463      3.80050     15.76774         0.124536      0.714672      0.447119
O       1.89103     15.30706      2.65792         0.038539     -0.004057      0.391446
O       1.91072      0.01694     15.78977        -0.398247     -0.686661      0.168993
O      13.45588      3.78389      2.73819         0.135411      0.500344      0.408486
O      13.33781      3.90136     15.80023         0.316398     -0.673283      0.420567
O      13.47315      0.01755      2.78531        -0.315126     -1.092049      0.246711
O      13.39938      0.00193     15.80766        -0.118506     -0.328472      0.510986
O       1.81498      3.85053      7.18296         0.326080      0.414730     -0.274421
O       1.98898      0.03808      7.04117        -0.179693     -0.915983      0.451743
O      13.45681      3.80220      7.03510         0.241790      1.851679      0.441557
O      13.44649     15.31735      7.09499        -0.168063      0.863205      0.568783
O       1.94192      3.86040     11.43966         0.019647     -0.416594     -0.022085
O       1.87735     15.31978     11.29647         0.468610      0.841140      0.547376
O      13.45432      3.75415     11.56551         0.155845      0.459324      0.309032
O      13.50794     15.34391     11.46756        -0.098024     -0.157686      0.472476
O       2.01652      7.61383      2.70127        -0.647118      1.464913      0.466585
O       1.92569      7.57261     15.80337        -0.358172      1.394212      0.048198
O      13.29288      7.65747      2.68237         0.620079      0.461005      0.333723
O      13.50891      7.72659     15.89874        -0.459722     -0.595827     -0.369221
O       1.93180      7.66365      7.11279        -0.061243      0.364524      0.167833
O      13.47177      7.69251      7.14340        -0.014788      0.518525     -0.114515
O       1.95253      7.64961     11.42563        -0.359796     -0.107615      0.170178
O      13.53747      7.65897     11.44751        -0.286731     -0.092290      0.555379
O       1.87656     11.50320      2.67541        -0.191055     -0.525583      0.234208
O       1.82415     11.52737     15.76705         0.124089      0.362295      0.460317
O      13.45243     11.48979      2.67584         0.089641      0.349130      0.362776
O      13.49857     11.45473     15.78327        -0.751079      1.051908      0.304188
O       1.91777     11.47448      7.09351         0.172899      0.886008      0.584654
O      13.39858     11.54876      7.12727         0.375238     -0.671861     -0.294826
O       1.87078     11.51472     11.36236         0.451515      0.314164      0.762165
O      13.39747     11.58556     11.66853         0.426024     -1.200288     -0.545119
O       5.85944      3.80524      2.76766        -0.458825     -0.330933      0.186781
O       5.74526      3.82472     15.76217         0.159157     -0.751830      0.618131
O       5.57482     15.25187      2.79981         0.845841      1.045728      0.504514
O       5.89999     15.32207     15.77402        -0.760521     -0.163079      0.096268
O       5.80233      3.86957      7.18601        -0.171099      0.310172     -0.246746
O       5.67502      0.10375      7.04480         0.325973     -0.879964      0.448321
O       5.69895      3.79559     11.42343         0.291614      0.808896     -0.029199
O       5.81116     15.34866     11.32708         0.292314      0.977725      0.278208
O       5.58237      7.68138      2.60959         0.539928     -1.533095      0.840138
O       5.85481      7.72303     15.83342        -1.055690     -0.333621     -0.463738
O       5.78645      7.62961      7.15511         0.384996      0.291831      0.221165
O       5.73049      7.74470     11.38825         0.327427     -1.335873      0.117194
O       5.84777     11.51450      2.93001        -0.088096     -0.306740     -0.167565
O       5.65559     11.50714     15.76198         0.463080      0.016561      0.097307
O       5.80670     11.50055      6.92669         0.198814      0.526509      0.740238
O       5.71961     11.57148     11.42835         0.365094     -1.108848      0.361372
O       9.49520      3.81250      2.69220         0.210041     -0.551401      0.229813
O       9.68487      3.81354     15.98437        -0.282861      0.900793      0.116288
O       9.55631      0.02625      2.76997         0.686705     -0.995449      0.688988
O       9.61876      0.02851     15.88979         0.395883     -0.822576     -0.044519
O       9.57632      3.79302      7.15609         0.340023      0.944896      0.018814
O       9.56755      0.00788      7.03189         0.384756     -0.677062      0.556340
O       9.78247      3.87592     11.40913        -0.663079     -0.394542      0.688914
O       9.52258      0.06626     11.53180         0.309444     -0.550911      0.092480
O       9.64893      7.62373      2.75061        -0.017722      0.745774      0.119740
O       9.49393      7.71985     15.81065         0.486512     -0.076774      0.694015
O       9.64698      7.69263      7.02009        -0.094518     -0.152921      0.305250
O       9.53914      7.59330     11.44255         0.674749      0.915295      0.559051
O       9.47839     11.51897      2.66526         0.219451     -0.191810      0.392711
O       9.66258     11.55837     15.80152        -0.033073     -0.589719      0.485202
O       9.51728     11.53108      7.19279         0.788405      0.226270     -0.354572
O       9.71677     11.52414     11.34049        -0.205147      0.010147      0.436801
