  # total energy = -7880.25164421 
CRSYTAL
PRIMVEC
    15.3600000000000000    0.0000000000000000    0.0000000000000000
     0.0000000000000000   15.3600000000000000    0.0000000000000000
     0.0000000000000000    0.0000000000000000    17.440000000000000
PRESSURE
2.13569 2.22331 -1.54955 0.169355 0.333925 -0.002076
PRIMCOORD
320 1
Pb       3.84752      3.74774      4.29545        -0.184058      0.301899      0.957698
Pb       3.74962      3.76812     17.40830         0.575647      0.087857      0.620807
Pb       3.78380     15.27774      4.32540        -0.004221      0.154270      0.921360
Pb       3.69378     15.26758     17.29922         0.678175      0.203843      0.689486
Pb       0.04611      3.73466      4.24607         0.236866      0.551752      1.377677
Pb       0.03073      3.83749     17.37082         0.167317      0.009449      0.855977
Pb       0.02242     15.34442      4.26680        -0.023254     -0.226777      1.402033
Pb      15.35278     15.28945     17.37114        -0.417922      0.298273      0.620057
Pb       3.75572      3.78238      8.74910         0.504991      0.249784     -0.069984
Pb       3.84757      0.03542      8.54117        -0.113348      0.026822      0.991925
Pb       0.01569      3.92249      8.71470        -0.405608      0.018600     -0.091503
Pb      15.22569     15.35004      8.71216         0.758868      0.208391      0.647438
Pb       3.78717      3.80353     13.00703         0.361436      0.195034      0.357130
Pb       3.77185      0.07484     12.93344         0.544633     -0.787232      0.925992
Pb       0.03540      3.80618     13.04077         0.286760     -0.266491      0.932385
Pb      15.31076     15.27735     13.05309         0.642069      0.164256      0.245152
Pb       3.81225      7.65165      4.34247         0.006252     -0.115866     -0.124583
Pb       3.82772      7.56440     17.31877        -0.215095      0.275293      0.508802
Pb      15.34931      7.78759      4.28880         0.178714     -0.191517      0.517192
Pb      15.24042      7.56204     17.39896         0.150220      0.601118      0.364987
Pb       3.75994      7.73596      8.64717         0.329237      0.015272      0.631241
Pb      15.35804      7.68726      8.65075        -0.204408      0.301250      0.396934
Pb       3.82681      7.59304     12.93883         0.342674      0.405742      0.841290
Pb      15.30030      7.57394     13.05898         0.361150      0.425996      0.737105
Pb       3.88503     11.53571      4.32540        -0.359214     -0.344838      0.865561
Pb       3.75367     11.61191     17.35486         0.334480     -0.736535      0.414995
Pb      15.23573     11.48729      4.37602         0.525362     -0.244362      0.101466
Pb      15.28911     11.55645     17.32728        -0.091566     -0.672291      1.137099
Pb       3.88978     11.48714      8.66537        -0.402894     -0.070161      0.422338
Pb      15.27325     11.51390      8.71432         0.420152     -0.185356      0.178404
Pb       3.81408     11.43929     13.00025         0.221507      0.393504      0.670858
Pb       0.07817     11.52445     12.98566        -0.254669     -0.015236      0.816163
Pb       7.68598      3.73157      4.27512         0.104612      0.908660      0.589448
Pb       7.54917      3.77052      0.03028         0.143792      0.394628      0.690605
Pb       7.71105     15.24183      4.37538        -0.379318      0.288409      0.672744
Pb       7.67833      0.00456     17.40704         0.147715     -0.803852      0.129027
Pb       7.65508      3.87389      8.59543        -0.213864     -0.036769      1.059262
Pb       7.63355      0.02710      8.68737         0.287055      0.097742      0.414994
Pb       7.76430      3.90719     12.95520        -0.342216     -0.270637      1.064707
Pb       7.58471      0.08492     12.96528        -0.157805     -0.115077      1.007381
Pb       7.76041      7.63524      4.34052        -0.489194     -0.284197      0.325249
Pb       7.54259      7.74655     17.37298         0.193978      0.100974      0.505168
Pb       7.74063      7.61228      8.66259        -0.489436      0.216462      1.062795
Pb       7.68598      7.71907     13.00706        -0.159806     -0.327161      0.282638
Pb       7.66825     11.49729      4.32320         0.244173     -0.304350      0.846906
Pb       7.65047     11.45878     17.39927        -0.265594      0.188647      0.035474
Pb       7.62805     11.58708      8.61405         0.010567     -0.219742      1.285073
Pb       7.62568     11.46393     12.92842         0.245308      0.108908      1.159496
Pb      11.42228      3.82426      4.22788         0.083162     -0.314159      1.035336
Pb      11.60450      3.81757     17.43377        -0.552696     -0.076706      0.637846
Pb      11.54033     15.21932      4.37472         0.076943      0.714576      0.522369
Pb      11.39165     15.29977      0.08859         0.399243     -0.164659     -0.000106
Pb      11.37421      3.83605      8.63106         1.303285     -0.028069      0.920107
Pb      11.49529      0.06043      8.68094        -0.485603     -0.196856      0.485377
Pb      11.58949      3.75984     13.05233        -0.859927     -0.179240      1.030400
Pb      11.57678     15.35686     12.97905        -0.824323     -0.143608      1.488689
Pb      11.45915      7.61989      4.25711         0.388680      0.217062      1.297994
Pb      11.52402      7.68966     17.39614        -0.433427      0.554082      0.641848
Pb      11.52752      7.70719      8.64201         0.018390      0.113505      0.605415
Pb      11.47863      7.58800     13.10294         0.066163      0.615866      0.772570
Pb      11.53629     11.51890      4.20699        -0.594103      0.122512      1.041478
Pb      11.41508     11.45504     17.38394        -0.146245      0.313052      1.058329
Pb      11.58605     11.50431      8.54689         0.034442      0.261460      1.701655
Pb      11.57446     11.49922     13.04291        -0.344540     -0.067834      0.231855
Ti       2.02464      1.83621      2.32122        -0.769227      0.383624     -1.525912
Ti       1.90330      1.90953     15.41843         0.664286     -0.350971     -1.232916
Ti       1.91406     13.36982      2.34731        -0.591529     -0.317155     -1.441466
Ti       1.82562     13.40118     15.37065         0.783026     -0.152741      1.410519
Ti      13.52629      1.96850      2.39991        -0.649783     -1.505268     -0.669711
Ti      13.46935      1.89246     15.41666        -0.603006     -0.794695      0.761465
Ti      13.51951     13.50134      2.31951        -1.453739     -0.265028     -1.018815
Ti      13.35179     13.39011     15.49106        -0.650915      0.726092     -1.067571
Ti       1.87639      1.93530      6.76151         0.486070      0.189906      0.420197
Ti       1.88547     13.45347      6.75484        -0.566371      0.137474     -0.707394
Ti      13.42720      1.92200      6.66571         0.452410      0.907079     -0.924141
Ti      13.38293     13.49739      6.74955         0.742496     -0.769763     -1.248496
Ti       1.92427      1.92850     11.00081        -0.157404     -0.629096     -0.847923
Ti       1.90401     13.42358     10.95587         0.446683      0.230976      0.561099
Ti      13.51116      1.91798     11.04138        -0.645211     -0.552186      0.884641
Ti      13.39897     13.43279     11.13980         0.415390     -0.842857     -1.015179
Ti       1.89345      5.72196      2.37984        -0.016301      0.462322     -1.216085
Ti       1.90141      5.74972     15.39799         0.558211      0.064287     -1.184213
Ti      13.38339      5.76939      2.44470         0.863233      0.223153     -0.439070
Ti      13.32843      5.67932     15.44283         0.570695      1.331440     -0.844024
Ti       1.92741      5.82462      6.79215        -0.983414     -1.010407     -1.787475
Ti      13.38911      5.76216      6.61190         0.637012      0.328839     -0.569987
Ti       1.90369      5.74315     11.06250         0.195370      0.514114     -0.951042
Ti      13.47270      5.65631     11.15511        -0.294197      0.957875     -0.153294
Ti       1.98256      9.64189      2.27434        -1.330345     -1.074264     -0.399454
Ti       1.81131      9.55584     15.42982         0.174845      0.744192     -1.382470
Ti      13.36880      9.65783      2.31979         1.397612     -0.831092     -1.797552
Ti      13.38830      9.59063     15.38989         0.003772     -0.674906      0.247294
Ti       1.96401      9.65370      6.63837        -1.560195      0.416526     -0.224776
Ti      13.43633      9.59923      6.70701         0.765164     -0.094995     -0.897599
Ti       1.86152      9.55925     11.09276         1.097518      0.255867     -1.964176
Ti      13.48550      9.52576     11.15706        -1.126012      0.827411     -0.599248
Ti       5.81515      1.81751      2.44720         0.374190      0.941436     -1.710363
Ti       5.82008      1.85674     15.49833        -0.962814     -0.200024      1.173946
Ti       5.69837     13.42477      2.42827         1.201914     -0.649255      0.403694
Ti       5.78366     13.39093     15.37080        -0.569218      0.053360     -1.909801
Ti       5.79695      1.98643      6.70909        -0.456947     -0.456065      0.019697
Ti       5.71217     13.43644      6.74871         0.012975      0.127763     -1.677397
Ti       5.73444      1.97957     10.96006         1.123811      0.204230     -0.905768
Ti       5.75614     13.46870     11.03795        -1.175920     -0.047470     -0.482728
Ti       5.67022      5.69798      2.34486         0.486115      0.067802     -0.773632
Ti       5.75941      5.65414     15.37132        -0.590512      0.709983     -0.942943
Ti       5.70049      5.78507      6.66058         0.465120     -0.601258     -0.496997
Ti       5.73677      5.74853     11.07151         1.339242      0.280534     -1.543726
Ti       5.75735      9.58957      2.40749        -0.059401     -0.652426     -0.804849
Ti       5.60868      9.53941     15.37107         0.680891      0.733174     -1.472654
Ti       5.79853      9.53301      6.70935         0.145258      0.751030     -1.549000
Ti       5.76772      9.61572     11.02866        -0.311310     -0.953147     -0.472369
Ti       9.66953      1.84721      2.36893         0.027843     -0.213454     -0.462047
Ti       9.62963      1.97231     15.54969         0.536658     -0.649046     -1.074166
Ti       9.55818     13.39048      2.43320         0.219753     -0.175556     -1.262349
Ti       9.63009     13.40323     15.31982        -0.558835      0.813667      0.724768
Ti       9.61034      1.92102      6.64796         0.229133     -0.605448      0.129788
Ti       9.52973     13.43010      6.74159         0.766353      0.663111     -0.881807
Ti       9.61797      1.89293     11.07923        -0.214040      0.175771     -1.274256
Ti       9.57034     13.47933     11.07658        -0.002748     -0.035351     -0.752840
Ti       9.55543      5.74699      2.29666        -0.639870     -0.417063      1.462812
Ti       9.49760      5.76083     15.57096         0.518075      0.124191     -0.709254
Ti       9.58387      5.75279      6.77674        -0.207704      0.406974     -3.072121
Ti       9.70685      5.74611     11.11006        -1.785013      0.225802     -0.051369
Ti       9.58610      9.49393      2.33391        -0.167878      1.158262     -1.929628
Ti       9.54433      9.62428     15.41595        -0.321211     -0.536037     -0.027509
Ti       9.54757      9.66197      6.77176         0.382347     -0.451708     -1.060002
Ti       9.62133      9.61544     11.11874         0.529154     -0.493786     -0.674895
O       2.02436      1.85642      0.48506        -0.511682     -0.091628      2.155250
O       1.79190      1.90163     13.54750         0.710999      0.121396      1.923699
O       1.96536     13.37948      0.48820        -0.290657      0.206575      2.248462
O       1.86125     13.39798     13.65746        -0.069152      0.095155     -0.624985
O      13.71831      1.85294      0.61841        -0.746970      0.440390      1.185907
O      13.42667      1.96494     13.65575         0.313995     -0.313965      0.915587
O      13.37116     13.52795      0.50276         0.485282     -0.201241      1.501221
O      13.34585     13.41631     13.63632         0.111866      0.036501      1.535427
O       1.92682      1.96147      4.99575         0.002573     -0.077115      0.182321
O       1.85432     13.48979      4.95014         0.091895     -0.238857      0.755298
O      13.42002      1.87738      4.85661         0.252055      0.308106      1.643029
O      13.44293     13.45125      4.94509        -0.052420     -0.028170      1.468463
O       2.00402      1.89906      9.19877        -0.148868      0.126067      1.475689
O       1.96178     13.46664      9.21260         0.006349     -0.040919      0.450575
O      13.45651      1.83204      9.32900        -0.161821      0.299647     -0.482578
O      13.48332     13.35483      9.35013        -0.390345      0.382745      0.797778
O       1.88420      5.72808      0.50106         0.121627      0.208243      1.838185
O       1.95269      5.80514     13.56325         0.124717     -0.585174      1.474120
O      13.51128      5.67035      0.64293        -0.169458      0.375232      0.967004
O      13.37858      5.63480     13.65911         0.093403      0.262719      0.768720
O       1.97871      5.71348      4.99544        -0.213285      0.205574      1.301673
O      13.35876      5.80584      4.81756         0.126652     -0.254918      1.021963
O       1.73913      5.89010      9.24584         0.710407     -0.443795      1.177900
O      13.52139      5.70522      9.43449        -0.368015     -0.062925      0.054955
O       1.84760      9.51695      0.48490         0.275928      0.210266      0.788290
O       1.76415      9.61140     13.59334         0.258727      0.105570      1.166269
O      13.42481      9.55970      0.46057        -0.189980      0.146762      2.536241
O      13.41883      9.43401     13.59867        -0.043471      0.688152      1.093177
O       1.69434      9.58563      4.85148         0.951444      0.304864      1.813590
O      13.50613      9.59967      4.91267        -0.211456      0.174939      0.508319
O       1.92928      9.63326      9.21583         0.125431     -0.329451      2.166087
O      13.48975      9.78324      9.39877        -0.217243     -0.660550      0.503751
O       5.93471      1.90375      0.64617        -0.346504     -0.364511      1.049278
O       5.75910      1.83810     13.81173        -0.007667      0.047065     -1.720458
O       5.78901     13.28006      0.71257        -0.231717      0.235952     -0.230539
O       5.60191     13.50600     13.51841         0.656978     -0.284925      1.904782
O       5.76005      1.92713      4.94904         0.016124      0.076092     -0.191148
O       5.74818     13.45316      4.88828        -0.418031     -0.112979      1.841122
O       5.88858      2.00371      9.16879        -0.379691     -0.035195      1.132328
O       5.82694     13.41490      9.19776        -0.485967     -0.074554      1.519797
O       5.60399      5.53988      0.52004         0.165478      0.797537      1.968793
O       5.74756      5.87386     13.54604        -0.031563     -0.804895      1.511728
O       5.79228      5.73670      4.86006        -0.401071      0.058205      1.497702
O       5.83991      5.84894      9.26571        -0.208641     -0.519396      0.811340
O       5.73298      9.68336      0.60995         0.041663     -0.358089      1.328825
O       5.67959      9.55068     13.52036         0.167372     -0.079784      1.771329
O       5.92656      9.51148      4.88463        -0.594880      0.119315      1.447799
O       5.72182      9.59588      9.21828        -0.096093      0.113353      1.126340
O       9.81976      1.77928      0.59058        -1.113027      0.232228      0.510094
O       9.66140      2.05763     13.76860        -0.344103     -0.328772      0.874306
O       9.64294     13.40183      0.64371        -0.447024      0.198966      1.206480
O       9.75453     13.43509     13.58311        -0.436507     -0.154698     -0.248768
O       9.65129      1.98527      4.89161        -0.091780     -0.112225      0.563694
O       9.67515     13.28685      4.95927        -0.636750      0.610546      0.869176
O       9.70086      1.78503      9.23571        -0.210691      0.592586      1.698745
O       9.53498     13.74586      9.29332         0.011618     -1.009758      1.354227
O       9.60373      5.76315      0.60756         0.024240      0.213026     -1.304250
O       9.66719      5.67581     13.78855        -0.590493      0.281656      1.174360
O       9.52509      5.75629      4.88856         0.323256     -0.034510      2.197109
O       9.71942      5.75167      9.32848         0.034024      0.018761     -0.017563
O       9.56023      9.51558      0.49724        -0.188493      0.304228      1.660044
O       9.55270      9.51246     13.64034        -0.032994      0.491092      0.820270
O       9.55320      9.72776      4.98913         0.153698     -0.691668      1.473625
O       9.60807      9.38553      9.35418         0.175214      0.563653      0.244260
O       3.84121      1.83298      2.72313         0.177199     -0.200385      0.131347
O       3.82176      1.87183     15.97362         0.373138     -0.451152     -1.081855
O       3.76898     13.37836      2.90313         0.475347      0.096545     -0.830754
O       3.84232     13.36815     15.92293        -0.583330      0.412552     -1.064302
O       0.05853      1.85949      2.86819         0.018874      0.320069     -0.903790
O       0.09624      1.91730     15.97327        -1.351146      0.048419     -1.109781
O      15.35107     13.40230      2.71274         0.537270     -0.033133     -0.215904
O      15.25516     13.39469     15.87408        -0.017794      0.164557     -0.725266
O       3.90246      2.03906      7.18429        -0.488816     -0.422339     -0.448247
O       3.81879     13.37499      7.15352         0.464516      0.167247     -0.453639
O       0.06294      1.87480      7.26600        -1.201615      0.365045     -0.891900
O      15.30062     13.54910      7.33257         0.012973     -0.520358     -1.347432
O       3.87547      1.89826     11.35440        -0.411844      0.479951      0.219727
O       3.78625     13.34419     11.57427         0.205350      0.516239     -1.227840
O       0.01576      1.97556     11.43963         0.103179     -0.530281     -0.320126
O       0.01420     13.47578     11.47340        -0.079814      0.207120     -0.137300
O       3.75975      5.66440      2.89793         0.687612      0.613198     -0.709735
O       3.83053      5.69144     15.85004        -0.219238      0.047318     -0.498474
O       0.03056      5.65282      2.91787        -0.195704      0.508732     -1.118531
O       0.05755      5.72386     15.79052        -0.646866      0.017349     -0.162344
O       3.79981      5.66599      7.10660         0.767778      0.817083      0.104086
O      15.29048      5.77892      7.15285         0.676944      0.401411     -0.330605
O       3.87270      5.70395     11.38302        -1.234645      0.184641      0.049685
O       0.06119      5.72195     11.60931        -1.072248     -0.189119     -0.707527
O       3.81955      9.68196      2.83921         0.647989     -0.468254     -0.384437
O       3.75776      9.60811     15.73941        -0.135240      0.212008      0.132058
O      15.35332      9.59235      2.79766        -0.711842      0.385019     -0.755943
O      15.24244      9.58911     15.85310         0.194794      0.136545     -0.387400
O       3.86915      9.64221      7.08912        -0.354256      0.087178     -0.536062
O      15.31789      9.62903      7.22156         0.603136      0.065629     -0.721404
O       3.81442      9.63780     11.48098        -0.113038     -0.463646     -0.623791
O       0.02037      9.52587     11.53624        -0.589344     -0.117322     -0.312012
O       7.78155      1.93573      2.88560        -1.401352     -0.654471     -0.701563
O       7.73024      1.89521     16.04372        -0.013990     -0.171868     -0.870599
O       7.62624     13.42037      2.93529        -0.137320     -0.114957     -0.815696
O       7.63879     13.40598     15.77520         0.665125      0.015772     -0.147769
O       7.72736      1.96966      7.02704         0.239204     -0.006679     -0.050294
O       7.63007     13.52727      7.20221         0.684657     -0.435189     -0.802910
O       7.63871      2.01156     11.49502         0.374949     -0.230812     -0.249715
O       7.52661     13.37707     11.45966         1.941205      0.291244     -0.011389
O       7.64655      5.86845      2.77256        -0.087782     -0.816072     -0.761404
O       7.56991      5.76284     16.02278         0.583965     -0.042564     -0.944086
O       7.66371      5.73425      7.09459         0.220044      0.161108     -0.093566
O       7.78691      5.69802     11.49097        -0.227688      0.453181     -0.245300
O       7.78153      9.46993      2.80694        -1.650694      0.043095     -0.427322
O       7.52864      9.63141     15.85767         0.694122     -0.483204     -0.408468
O       7.65526      9.57525      7.22669         0.859703      0.029061     -0.450578
O       7.68455      9.57706     11.42233        -0.274984     -0.128281      0.107752
O      11.52926      1.73472      2.73748         0.457869      0.506984     -0.031281
O      11.54821      1.96989     16.00256         1.024695      0.163981     -0.886238
O      11.47567     13.56777      2.87740         0.098179     -1.210242     -1.033118
O      11.42446     13.42283     16.01064         0.980797     -0.274707     -1.017421
O      11.58660      1.91137      7.12458        -0.419468      0.396459     -0.300594
O      11.51091     13.38280      7.14605         0.136169      0.607700     -0.261325
O      11.48803      1.79885     11.50030         0.396744      0.654528     -0.611176
O      11.48376     13.53193     11.40762        -0.144482     -0.304169     -0.144899
O      11.48880      5.72656      2.93324         0.455451      0.075919     -1.584659
O      11.48036      5.82974     15.99219         0.287259     -0.837003     -0.738582
O      11.48833      5.76547      7.06172         0.618961      0.184261      0.198159
O      11.44159      5.69140     11.73337         1.928122     -0.142526     -1.204792
O      11.49332      9.53649      2.77714         0.678957      0.692264     -0.357132
O      11.43658      9.63294     15.92649         0.325179     -0.781505     -1.073855
O      11.53448      9.66114      7.21886        -0.614925     -0.542419     -0.739505
O      11.48799      9.69566     11.55031         0.941399     -0.601923     -0.334343
O       2.03042      3.79305      2.76830        -0.837109     -0.481007     -0.508059
O       2.06791      3.77070     15.84644        -1.225399      0.637471     -0.915598
O       1.86659     15.27981      2.80501         0.570109      0.452152     -0.706148
O       1.82290     15.29426     15.80905         0.464139      0.295364     -0.398479
O      13.40535      3.79520      2.79066         0.034147      0.234492     -0.371589
O      13.51626      3.88736     15.92178        -0.413346     -1.303303     -0.397448
O      13.45295     15.27506      2.94797         0.274128      0.934659     -1.048873
O      13.38841     15.34364     15.87618         0.388323      0.672054     -0.724180
O       1.90153      3.87817      7.32066        -0.194321     -0.073748     -0.860625
O       1.98705     15.34982      7.12324         0.020477      0.670621     -0.207680
O      13.52262      3.95807      7.17832        -0.620022     -1.540739     -0.605071
O      13.42923      0.08198      7.13509         0.016783     -0.861170     -0.287561
O       1.92874      3.84135     11.51680         0.191578     -0.294807     -0.624301
O       1.99592      0.05255     11.51271        -0.880056     -0.579867     -0.917866
O      13.50338      3.77535     11.60754        -0.584754      0.123528     -0.895101
O      13.43519     15.35149     11.65134         0.601133      0.203076     -1.224124
O       1.98533      7.71750      2.84342        -0.264203     -0.912071     -0.748068
O       1.90221      7.73279     15.64164        -0.027516     -1.580387      0.617700
O      13.44227      7.71429      2.75047        -0.211818     -0.607944     -0.452992
O      13.39189      7.63054     15.90057         0.192543      0.024290     -0.599534
O       1.89272      7.79236      7.12616         0.330885     -0.911193     -0.362771
O      13.47916      7.74029      7.16391        -0.667305     -0.886419     -0.367186
O       1.92126      7.61974     11.48667        -0.059783      0.475876     -0.452086
O      13.36906      7.59867     11.50364         0.193065      0.152579     -0.209537
O       1.90406     11.46400      2.74173        -0.016706      1.264549     -0.140227
O       1.75246     11.55653     15.90439         0.655485     -0.729609     -0.770310
O      13.38070     11.59857      2.77320         0.135275     -0.910298     -0.583924
O      13.23857     11.49487     15.93893         0.995384      0.074996     -1.165998
O       1.85306     11.59526      7.08036         0.179549     -1.223092     -0.148231
O      13.48528     11.50303      7.07447        -0.206831      0.980701      0.082899
O       1.81939     11.50728     11.42874         0.225128     -0.038676     -0.331071
O      13.46621     11.50292     11.61048        -0.009364      0.373646     -0.429112
O       5.69670      3.75021      2.78008         0.470486      0.503273     -0.064204
O       5.81442      3.78000     15.82715        -0.298317      0.106908     -0.279771
O       5.71886     15.33084      2.81912         0.216366     -0.368909     -0.161956
O       5.76293     15.27078     15.88889         0.078131      0.400438      0.054739
O       5.80208      3.86659      7.23532        -0.212866      0.400199     -0.973799
O       5.74488     15.34587      7.11127        -0.095154      0.481461     -0.360783
O       5.71032      3.87008     11.51910         0.193564     -0.944577     -0.253868
O       5.84820      0.06756     11.36000        -0.697720     -0.549233     -0.153257
O       5.66425      7.60802      2.72025        -0.230784      0.503626     -0.215638
O       5.60878      7.59287     15.81078         0.590773      0.824635     -0.138676
O       5.75700      7.70378      7.06042        -0.247555     -1.036878     -0.003233
O       5.81017      7.60755     11.41248        -0.277191      1.313483      0.030347
O       5.78598     11.44661      2.93111        -0.180666      0.459658     -0.786033
O       5.71533     11.48616     15.85165        -0.153100      0.108784     -0.477421
O       5.85749     11.51339      7.16575        -0.562874      0.035278     -0.648859
O       5.81156     11.45275     11.57034        -0.876547      0.532615     -1.207379
O       9.60049      3.81116      2.63550         0.214697     -0.104598      0.196399
O       9.58737      3.88664     16.01801         0.002506     -0.364980     -0.176952
O       9.42584     15.27845      2.87358         0.840802      0.555447     -0.560635
O       9.70328     15.31358     15.83863        -0.764583      0.545610     -0.137710
O       9.73537      3.84453      7.13774        -1.054203     -0.343199     -0.590057
O       9.63198     15.35164      7.16629        -0.017841      0.470335     -0.987852
O       9.62044      3.79596     11.59214         0.536068     -0.178254     -1.030657
O       9.44754      0.01885     11.60919         0.441359     -0.116670     -0.695942
O       9.72467      7.65153      2.73278        -0.543380     -0.398926     -0.028045
O       9.48333      7.72581     15.97222         0.183633     -0.568021     -0.738994
O       9.62932      7.65479      7.22350        -0.056265      0.368193     -0.805555
O       9.69778      7.70938     11.68541        -0.535075     -0.891581     -1.156130
O       9.46919     11.44014      2.78427         0.915883      0.545040     -0.390860
O       9.57922     11.52637     15.84853        -0.229109     -0.406998     -0.423576
O       9.58328     11.57319      7.15806        -0.360165     -0.789005      0.176481
O       9.57814     11.52771     11.48776        -0.138527      0.879297     -0.440899
