  # total energy = -7868.47293003 
CRSYTAL
PRIMVEC
    15.010000000000000    0.0000000000000000    0.0000000000000000
     0.0000000000000000   15.010000000000000    0.0000000000000000
     0.0000000000000000    0.0000000000000000    16.400000000000000
PRESSURE
20.2876 20.1675 10.0712 0.192341 -0.183538 -0.015612
PRIMCOORD
320 1
Pb       3.79036      3.72036      4.11503        -0.292322      0.164247      0.579870
Pb       3.75542      3.74301     16.39640        -0.009832      0.012041      0.741495
Pb       3.72828      0.01371      4.07390        -0.059813      0.153550      0.942029
Pb       3.75446     15.00127     16.36404        -0.030676     -0.020983      0.555400
Pb      14.96813      3.71007      4.06397         0.698002      0.217829      0.995993
Pb      14.99691      3.71330     16.35513         0.037924      0.348691      0.917072
Pb      14.97512     15.00862      4.09679         0.473464     -0.241119      0.661040
Pb      14.96756     14.98635     16.38330         0.202889      0.188981      0.589704
Pb       3.74828      3.71518      8.19673        -0.050599     -0.246920      0.045865
Pb       3.75808     14.97930      8.19139        -0.183954     -0.043448      0.401228
Pb      14.99869      3.73638      8.19152         0.144541      0.014389      0.478332
Pb      14.97696     14.96473      8.16039         0.179236      0.437971      0.752364
Pb       3.75667      3.72554     12.25212        -0.241297      0.121502      1.027215
Pb       3.73953     15.00135     12.30336        -0.088394     -0.271556      0.769744
Pb      14.99348      3.71893     12.26865         0.219848      0.209810      1.218205
Pb      15.00116     14.99882     12.26747        -0.279561      0.120201      0.582728
Pb       3.70018      7.51158      4.06329        -0.214092     -0.584494      0.686378
Pb       3.74639      7.47144      0.01746        -0.212937     -0.113646      0.367870
Pb      14.97297      7.48535      4.06877         0.491159      0.118696      0.855756
Pb      14.98587      7.48935     16.38998         0.090907      0.296111      0.527467
Pb       3.72684      7.51452      8.14020         0.001811     -0.392555      0.773660
Pb      14.99397      7.50028      8.17177        -0.089254      0.150251      0.594456
Pb       3.73440      7.50367     12.26780         0.575297      0.178072      1.000076
Pb      15.00428      7.44934     12.27221        -0.140105      0.517682      0.938901
Pb       3.70490     11.22638      4.08526        -0.014267      0.230707      0.705831
Pb       3.73656     11.18823     16.34915        -0.034177      0.445989      0.875117
Pb      14.98282     11.22754      4.06405         0.374222      0.087078      1.045494
Pb      14.97875     11.27922     16.39403         0.197552     -0.724654      0.263744
Pb       3.72475     11.20028      8.17538        -0.177271      0.566937      1.249757
Pb      14.98674     11.22062      8.15404         0.383970     -0.122530      1.241094
Pb       3.74298     11.24942     12.28341        -0.175438     -0.044610      0.614699
Pb      15.00186     11.24991     12.27878        -0.373432     -0.333722      0.501651
Pb       7.49439      3.72707      4.07865        -0.549170      0.172691      0.457338
Pb       7.48578      3.76100     16.35836         0.109591      0.018940      1.183670
Pb       7.48465     14.96129      4.09674        -0.122135     -0.010998      0.356435
Pb       7.44619     14.99126     16.36320         0.304602      0.144718      0.930819
Pb       7.49064      3.71408      8.17932         0.069934      0.421924      0.737567
Pb       7.48721     15.00289      8.18746         0.191216     -0.631959      0.844301
Pb       7.47564      3.72602     12.26642         0.117810      0.207709      0.644232
Pb       7.50858     14.95902     12.29293        -0.273689      0.219251      0.671480
Pb       7.44067      7.49615      4.03905         0.250925     -0.245201      1.284743
Pb       7.47489      7.47259     16.37771         0.405621     -0.133988      0.777239
Pb       7.48531      7.48994      8.20125        -0.021965     -0.033684      1.383414
Pb       7.50689      7.48093     12.31040        -0.250921     -0.293558      0.631145
Pb       7.48608     11.26102      4.05852        -0.061257     -0.187944      0.926022
Pb       7.49711     11.24149     16.37682        -0.063880      0.284039      1.585366
Pb       7.46963     11.22920      8.17326         0.519406      0.015986      0.954127
Pb       7.50250     11.22216     12.27670        -0.198530      0.125822      0.554614
Pb      11.22542      3.73799      4.07388        -0.222795     -0.101031      0.735042
Pb      11.26227      3.75607     16.35874        -0.251080     -0.049884      1.321471
Pb      11.28522     14.97984      4.09712        -0.434793      0.237600      0.529831
Pb      11.21496     14.96077     16.38707        -0.395028      0.375007      0.598765
Pb      11.29141      3.73016      8.15656        -0.489410      0.620777      0.497722
Pb      11.26576     14.96517      8.18030        -0.272380      0.094160      0.395820
Pb      11.26602      3.71836     12.23599        -0.429661      0.736290      1.754323
Pb      11.25044      0.01891     12.26397         0.322505     -0.653916      1.103367
Pb      11.24061      7.47534      4.08351         0.003609      0.348218      0.556649
Pb      11.21787      7.47527     16.39435        -0.317955      0.144973      0.776014
Pb      11.20744      7.47339      8.16669         0.053722      0.215151      0.973157
Pb      11.24840      7.45134     12.26282        -0.105140      0.152454      1.103212
Pb      11.25749     11.24434      4.07532        -0.436649      0.068377      1.030647
Pb      11.23365     11.22042     16.37579         0.071796     -0.015141      0.960986
Pb      11.21254     11.23319      8.18843        -0.300826     -0.228316      0.876131
Pb      11.22410     11.25397     12.25556         0.275403     -0.091304      1.206578
Ti       1.85316      1.86057      2.21847         0.979870      0.227443     -0.811380
Ti       1.87916      1.87137     14.55492         0.239933     -0.111876     -1.529806
Ti       1.84766     13.08933      2.16160        -0.102825      0.629065     -0.800912
Ti       1.80923     13.12490     14.48815         1.247400      0.049050     -0.818073
Ti      13.11678      1.88985      2.22078        -0.553790     -0.908010     -1.560762
Ti      13.10974      1.87410     14.50481         0.278561     -0.341297     -1.467255
Ti      13.11307     13.10781      2.17867         0.526832      0.586210     -0.400574
Ti      13.10286     13.13615     14.55089        -0.383982     -0.528514     -1.672062
Ti       1.85710      1.85839      6.32563         0.519702      0.175536     -1.131748
Ti       1.85609     13.09073      6.30087         0.191765      1.331948     -1.112890
Ti      13.06980      1.87179      6.28944         1.007637      0.097921     -0.719152
Ti      13.12098     13.07906      6.30573         0.097750      1.327051     -0.809541
Ti       1.84030      1.84765     10.39290         0.205858      0.136733     -0.579384
Ti       1.82874     13.12037     10.36957         0.694981     -0.315076     -1.054092
Ti      13.05203      1.96215     10.38645         1.304036     -2.570173     -0.525480
Ti      13.11308     13.12158     10.36332        -0.412142     -0.289828     -0.505634
Ti       1.83941      5.60249      2.17931         0.722641      0.258631     -0.469258
Ti       1.83361      5.61744     14.44040         0.621833      0.508238      0.058373
Ti      13.12015      5.59394      2.26319         0.084625      0.890144     -1.397702
Ti      13.12007      5.61602     14.51328        -0.170405      0.903180     -0.543575
Ti       1.86778      5.58270      6.30105         0.091984      0.460493     -1.725586
Ti      13.12991      5.64728      6.26637        -0.096310     -0.213517     -0.206007
Ti       1.89682      5.60458     10.38003        -0.463293      0.387483     -0.701006
Ti      13.13114      5.59734     10.36970        -0.051767      1.111055     -0.177555
Ti       1.81778      9.37686      2.17922         0.366191     -0.597409     -0.519565
Ti       1.94762      9.39242     14.47016        -2.015420     -0.891512     -0.559540
Ti      13.10020      9.41353      2.23349        -0.519663     -1.633436     -0.983285
Ti      13.09161      9.37985     14.49892         0.707595     -0.318327     -1.081728
Ti       1.94164      9.36521      6.31096        -2.398603     -0.319701     -1.470179
Ti      13.12918      9.44256      6.31518        -0.134527     -2.517839     -0.514523
Ti       1.88730      9.33863     10.37517        -0.513872      0.673623     -0.848707
Ti      13.09785      9.32623     10.39435         0.280848      0.651845     -0.976243
Ti       5.64203      1.84781      2.12130        -1.294261      0.336386     -0.420691
Ti       5.62437      1.89569     14.40877         0.439509     -0.335404      0.480305
Ti       5.54911     13.09637      2.20511         0.860582      0.492031     -0.623043
Ti       5.60481     13.13948     14.51385        -0.139072     -0.075553     -0.473220
Ti       5.67716      1.83439      6.29883        -1.816340      0.146661     -1.416890
Ti       5.61986     13.07534      6.30713        -0.348140      0.310326     -0.869742
Ti       5.58721      1.82209     10.41536         0.948550      0.115749     -0.835261
Ti       5.58257     13.05173     10.41451         0.223536      1.562284     -0.797058
Ti       5.61541      5.60372      2.19056         0.360691      0.120718     -1.247091
Ti       5.63629      5.63238     14.54660        -0.271190      0.455477     -1.284435
Ti       5.60207      5.62202      6.31411        -0.137502     -0.221492     -1.278534
Ti       5.60292      5.59717     10.32110         0.676087      1.432402      0.132785
Ti       5.57781      9.33881      2.21541         0.182953      0.751387     -0.205253
Ti       5.66329      9.41898     14.48169        -0.986974     -1.341027     -1.482331
Ti       5.61549      9.33842      6.28516         0.621505      0.313382     -0.424143
Ti       5.63639      9.35726     10.34015        -0.160661     -0.587379      0.070963
Ti       9.34159      1.88915      2.20863         0.285428     -0.709436     -0.048166
Ti       9.38289      1.87926     14.44183        -0.341802     -0.376576      0.029526
Ti       9.33319     13.12449      2.24689         0.308136      0.391914     -1.537115
Ti       9.33867     13.10692     14.48551         0.303570      1.431617     -0.915338
Ti       9.31354      1.90007      6.28024         1.690104     -0.701991     -0.354089
Ti       9.37558     13.09799      6.24508         0.100937      0.661098      0.216526
Ti       9.38971      1.85527     10.36858        -1.268477      0.168750     -0.105712
Ti       9.35630     13.12915     10.39368        -0.506615     -0.618444     -0.924341
Ti       9.36531      5.62970      2.25103        -0.195518     -0.064729     -1.916845
Ti       9.40024      5.57811     14.46448        -1.104185      1.126952     -0.464970
Ti       9.29049      5.66278      6.27477         1.041499     -0.565743     -0.544365
Ti       9.33891      5.58513     10.35779         0.949116      0.899605     -0.845358
Ti       9.31571      9.36572      2.21599         0.284337      0.480817     -1.036208
Ti       9.33483      9.43544     14.50407         0.896049     -1.593374     -1.037044
Ti       9.31413      9.33258      6.30621         0.433680      0.784462     -0.703391
Ti       9.36646      9.32590     10.45633         0.038856      0.502607     -1.600343
O       1.95900      1.84950      0.38588        -0.496880      0.022954      0.333089
O       1.89718      1.90727     12.69802        -0.148101     -0.269687      0.682779
O       1.78685     13.07697      0.32341         0.116999      0.283402      0.867734
O       1.79852     13.14186     12.65265         0.136011     -0.194906      0.460771
O      13.03524      1.78867      0.35688         0.580795      0.272309      0.643083
O      13.02674      1.76425     12.64717         0.687153      0.610597      0.705369
O      13.31985     13.05327      0.36266        -0.871626      0.589540      0.075795
O      12.96769     12.95263     12.75765         0.784727      1.028153     -0.476509
O       1.83764      1.90615      4.49531        -0.088234     -0.157362      0.176812
O       1.82548     13.14311      4.46967        -0.023400     -0.293562      0.659256
O      13.11854      1.93679      4.46240        -0.081734     -0.155962      0.552879
O      13.07095     13.08588      4.49392         0.268868      0.133776      0.211373
O       1.84670      1.88592      8.58387         0.188679      0.011849      0.407420
O       1.91800     13.14825      8.53659        -0.487271     -0.062153      0.916608
O      13.07225      1.85273      8.59123        -0.039555      0.167990      0.271043
O      13.16504     13.08928      8.54961        -0.438338      0.084467      0.524408
O       1.82454      5.73455      0.39093        -0.066601     -0.703299      0.084656
O       1.86807      5.64568     12.62612         0.025166     -0.385875      0.933030
O      13.11489      5.63850      0.45411         0.021559     -0.219170     -0.213416
O      13.08583      5.56344     12.72730         0.321674      0.263331      0.015710
O       2.00507      5.55883      4.45344        -0.703602      0.272033      0.710537
O      13.17290      5.63109      4.43713        -0.499105     -0.205992      0.797690
O       1.82715      5.57539      8.54396         0.450591      0.352015      0.910351
O      13.13177      5.53771      8.60817         0.001249      0.287196     -0.119265
O       1.92393      9.35604      0.39195        -0.093423      0.108299     -0.083748
O       1.83507      9.38186     12.66080         0.295559      0.231037      0.167863
O      13.08041      9.30207      0.42209        -0.108165      0.607569      0.463493
O      13.12240      9.33604     12.67912        -0.013670      0.058307      0.323612
O       1.78370      9.31810      4.48123         0.391742      0.561419      0.430235
O      13.08633      9.33219      4.49073         0.256285      0.274848      0.685306
O       1.95823      9.41027      8.52333        -0.398943     -0.537441      0.695076
O      13.05049      9.25939      8.54317         0.236143      0.832555      1.144365
O       5.59407      1.83108      0.29505        -0.027957      0.043837      1.107182
O       5.54030      1.79928     12.61048         0.306515      0.646060      0.480033
O       5.69533     13.10753      0.40808        -0.767825     -0.001714      0.058348
O       5.54646     13.12876     12.72382         0.365983     -0.181756     -0.197226
O       5.57782      1.94869      4.47342         0.596472     -0.379212      0.656010
O       5.68037     13.04847      4.49658        -0.482692      0.281293      0.494894
O       5.57816      1.84477      8.57944         0.372674      0.070212      0.475134
O       5.63649     13.17235      8.60882        -0.067694     -0.120290      0.141620
O       5.77485      5.67778      0.33483        -0.936220     -0.058918      0.898532
O       5.70246      5.61114     12.70640        -0.318768      0.091567      0.681889
O       5.58955      5.63277      4.47675         0.243651     -0.238851      0.349281
O       5.48758      5.72497      8.52435         0.445652     -0.769298      0.645384
O       5.54335      9.37062      0.43587         0.147131      0.108539     -0.176885
O       5.52562      9.35614     12.65560         0.491606      0.351627      0.753197
O       5.62202      9.28451      4.50536        -0.046096      0.620199      0.089717
O       5.66639      9.33997      8.54072        -0.657024      0.027003      0.690543
O       9.35768      2.02462      0.45925         0.168636     -0.952209     -0.420525
O       9.35073      1.90677     12.65136         0.168506     -0.196595      0.509326
O       9.30278     13.16567      0.42564         0.443720     -0.026219      0.405128
O       9.35546     13.10016     12.64065        -0.218331      0.166716      1.243564
O       9.36323      1.81478      4.50797        -0.208551      0.495216     -0.145977
O       9.48720     13.22904      4.43991        -0.367173     -0.651283      0.538190
O       9.35355      1.86751      8.57963         0.104784      0.039425      0.038758
O       9.34646     13.13426      8.55520        -0.005790     -0.125990      0.664508
O       9.36289      5.59947      0.40458        -0.006621      0.078088      0.540001
O       9.35367      5.66552     12.63887        -0.111470     -0.576188      0.847914
O       9.32559      5.69427      4.44235         0.211362     -0.387557      0.645062
O       9.27709      5.68870      8.52401         0.544850     -0.513135      0.951936
O       9.39842      9.41276      0.38935        -0.171340      0.010719      0.709079
O       9.45081      9.31956     12.68503        -0.916833      0.508523      0.493907
O       9.28909      9.36814      4.51118         0.109347     -0.200927      0.275905
O       9.27837      9.33595      8.59105         0.559157      0.358917      0.795194
O       3.68244      1.96225      2.56755         1.118309     -0.668916     -0.519451
O       3.78673      1.85169     14.79412        -0.507482      0.025859     -0.221444
O       3.70971     13.09783      2.52313        -0.067627     -0.422939     -0.156071
O       3.73989     13.13205     14.74590        -0.241703     -0.111636      0.301133
O      14.99208      1.91569      2.49801        -0.088484     -0.346853     -0.277438
O      15.00728      1.89165     14.80481        -0.233250     -0.072536     -0.080385
O      14.99719     13.14472      2.49895        -0.057274      0.065717      0.115235
O      15.00107     13.15332     14.69915        -0.518934     -0.173447      0.249946
O       3.82499      1.88864      6.54043        -1.601362      0.343114      0.423374
O       3.69600     13.06081      6.63923         0.745781      0.097760     -0.457553
O      15.00606      1.83647      6.61371        -0.559933      0.318172     -0.097999
O      14.96023     13.16534      6.68973         0.727073     -0.381980     -0.661539
O       3.72418      1.79942     10.71350        -0.200620      0.817425     -0.382154
O       3.72819     13.13521     10.72744        -0.347657     -0.045790     -0.165387
O      15.00334      1.94466     10.80994        -0.890320     -0.715237     -0.891309
O      14.97054     13.12401     10.66038        -0.105517     -0.019634      0.143375
O       3.79991      5.64303      2.40006        -1.161670      0.138363     -0.059449
O       3.68177      5.62611     14.93295         0.965793     -0.029716     -0.882926
O      14.97666      5.56802      2.47378         0.490988      0.066076      0.169334
O      14.97294      5.63283     14.87540         0.228210     -0.285659     -0.541286
O       3.74964      5.55048      6.60965        -0.463603      0.307990     -0.008968
O      14.98918      5.72956      6.61626        -0.003376     -0.724655     -0.374663
O       3.77547      5.68767     10.77992        -0.500590     -0.535073     -0.800493
O       0.01867      5.59878     10.76046        -0.719861      0.064567     -0.558905
O       3.72131      9.40243      2.58400        -0.323195      0.039316     -0.422152
O       3.75931      9.35953     14.78106         0.156134      0.104848      0.099613
O      14.96205      9.36671      2.50228         0.240109      0.125198     -0.117041
O       0.01725      9.36918     14.76250        -0.590251     -0.020532      0.143398
O       3.73970      9.36786      6.55698         0.734759      0.099324     -0.038511
O       0.00201      9.30514      6.62698        -0.368210      0.397679     -0.158556
O       3.74345      9.37388     10.67113        -0.076286     -0.101602     -0.183488
O      14.98254      9.30755     10.64564         0.067759      0.278924     -0.116198
O       7.42265      1.74754      2.53492         0.847312      0.598022     -0.182264
O       7.52272      1.86649     14.79086        -0.883024      0.262239     -0.501458
O       7.48650     13.09863      2.43430        -0.619140      0.516268      0.673632
O       7.48557     13.05985     14.89557         0.101716      0.231702     -0.889133
O       7.51707      1.84449      6.63300        -0.577330     -0.026256     -0.022693
O       7.50408     13.19912      6.56045         0.023098     -0.414318     -0.143226
O       7.51640      1.79905     10.80997        -0.365614      0.731743     -0.860076
O       7.42250     13.17290     10.78445         0.721953     -0.526515     -0.355534
O       7.51860      5.57835      2.43192        -0.716977      0.378936      0.569238
O       7.50554      5.65515     14.83938         0.147965     -0.573124     -0.570931
O       7.46362      5.63335      6.61302         0.052269     -0.225491     -0.194445
O       7.52461      5.70659     10.60928        -1.065637     -0.566362      0.127810
O       7.44486      9.34921      2.58061         0.327011      0.332806     -0.554412
O       7.48275      9.40970     14.84669         0.185809      0.384216     -0.369345
O       7.43441      9.31958      6.74460         0.908613      0.670582     -1.194319
O       7.47547      9.30158     10.72882         0.060969      0.604373      0.020633
O      11.22713      1.90128      2.47248         0.032367     -0.236938      0.295942
O      11.28576      1.79247     14.72495        -1.408291      0.288082      0.336310
O      11.28676     13.04701      2.38303        -0.579570      0.291923      0.139085
O      11.22040     13.17400     14.83215        -0.189427      0.008921      0.245246
O      11.21898      1.95336      6.57166         0.154132     -0.307764      0.001337
O      11.28734     13.15377      6.68254        -0.691727     -0.347156     -0.500222
O      11.22497      1.88035     10.86131        -0.149085     -0.179472     -1.569168
O      11.18648     13.01676     10.69279         0.456082      0.719962     -0.557979
O      11.23369      5.60735      2.40733         0.178707     -0.083311      0.814179
O      11.20570      5.62791     14.82692         0.455955     -0.047659     -0.241139
O      11.25421      5.62904      6.60606        -0.510860     -0.305213     -0.432686
O      11.27161      5.58027     10.77114        -0.505954     -0.042827     -0.857259
O      11.18638      9.49553      2.62494         0.568665     -0.804817     -0.765643
O      11.17550      9.36459     14.82087         0.737580      0.228083      0.012326
O      11.24821      9.43337      6.60287        -0.576731     -0.434628     -0.265973
O      11.21567      9.41367     10.74656         0.439547     -0.280438     -0.620640
O       1.86287      3.76578      2.49608        -0.152486     -0.446232     -0.346891
O       1.89709      3.72467     14.85139        -0.304920      0.674258     -0.211002
O       1.93814     14.95803      2.50093        -0.623346      0.779239     -0.278199
O       1.86236      0.00013     14.85013        -0.064838     -0.248435     -0.334469
O      13.03724      3.70538      2.54064         0.439331      0.742157     -0.287262
O      13.07633      3.76984     14.77273         0.243365     -0.734787      0.141763
O      13.12098      0.00268      2.58277         0.024017     -0.430937     -0.649571
O      13.11826     15.00020     14.66486         0.363925     -0.026075      0.727564
O       1.78652      3.74785      6.60448         0.271339     -0.131057      0.111161
O       1.88227      0.02806      6.55311         0.007424     -1.044243      0.221457
O      13.16586      3.74025      6.73495        -0.098516      0.353008     -1.065466
O      13.18774      0.02420      6.57962        -0.777597     -0.577072     -0.168895
O       1.80367      3.77488     10.73395         0.903677     -0.640134     -0.419594
O       1.87991     14.97195     10.67779        -0.507239      0.935356      0.017490
O      13.05626      3.73956     10.69466         0.439101      0.269845      0.040409
O      13.07285     14.98050     10.61744        -0.067363      0.470840      0.268125
O       1.83011      7.50272      2.44389         0.100698      0.014560      0.310512
O       1.84992      7.46434     14.77048         0.116444      0.716953     -0.210502
O      13.15684      7.50685      2.58547        -0.718860     -0.063308     -0.513894
O      13.01698      7.51633     14.87686         0.517840     -0.686814     -0.520820
O       1.84456      7.48084      6.47441         0.621850      0.293365      0.631783
O      13.06285      7.45434      6.77403         0.314605      0.558143     -1.320368
O       1.85677      7.50329     10.78581         0.118110     -0.456470     -0.871112
O      13.07374      7.46876     10.71563         0.158095     -0.192748     -0.262287
O       1.77573     11.24095      2.50594         0.404395      0.010922     -0.047373
O       1.84814     11.25013     14.89563         0.216488      0.038436     -0.883997
O      13.15988     11.24511      2.55463         0.011492      0.460188     -0.338765
O      13.08174     11.23271     14.73688         0.102256      0.110610      0.733071
O       1.83183     11.27276      6.62866        -0.184984     -1.000987     -0.422712
O      13.14701     11.23824      6.61571         0.018540      0.355527     -0.115500
O       1.81034     11.23610     10.63952         0.213857      0.026094      0.089199
O      13.02555     11.23752     10.71129         0.846509     -0.268042     -0.516766
O       5.60487      3.74183      2.40345         0.383465     -0.235911      0.159406
O       5.59758      3.76322     14.80828         0.023966     -0.533944     -0.475795
O       5.52606      0.00246      2.52517         0.065230     -0.503862     -0.233254
O       5.64306     15.00950     14.78252         0.011408     -0.069533     -0.222084
O       5.62267      3.72911      6.63681         0.462669      0.178471     -0.034349
O       5.47949     14.94169      6.56689         0.883472      0.593403     -0.101211
O       5.62952      3.77917     10.75597         0.004237     -0.696333     -0.757160
O       5.64496      0.02570     10.72479        -0.381642     -1.044151     -0.218475
O       5.65108      7.50478      2.57646        -0.426392     -0.288476     -0.777816
O       5.65480      7.53296     14.79110        -0.269264     -0.290372     -0.026906
O       5.65148      7.49453      6.60813        -0.703541     -0.066796     -0.287079
O       5.66777      7.50386     10.68314        -0.611309     -0.406779     -0.148232
O       5.62555     11.27220      2.63473        -0.278065     -0.964240     -0.704245
O       5.60077     11.22738     14.82386        -0.087953      0.794161     -0.127718
O       5.57306     11.23516      6.77494         0.458888     -0.238926     -1.241742
O       5.56001     11.24100     10.70458         0.484729     -0.537123     -0.098852
O       9.27775      3.72496      2.56890         0.428886      0.326113      0.122518
O       9.33802      3.70342     14.94108         0.470712      0.755931     -1.387149
O       9.35200      0.00317      2.60676         0.361016     -0.178486     -0.676280
O       9.29271      0.02657     14.88929         0.514956     -0.524579     -0.554640
O       9.34699      3.80436      6.63616        -0.239843     -0.845392     -0.388914
O       9.41215     14.99159      6.59336        -0.001097      0.412854     -0.028769
O       9.32997      3.74386     10.68590         0.082558     -0.264920     -0.255670
O       9.30922     14.99111     10.65398         0.576941      0.189991     -0.023273
O       9.38927      7.52393      2.50052        -0.003864     -0.283044     -0.107901
O       9.24604      7.52958     14.75987         0.632218     -0.531487      0.023187
O       9.33338      7.50377      6.62365         0.270128     -0.140355     -0.380858
O       9.41986      7.49018     10.70716        -0.031213     -0.448215     -0.146607
O       9.27367     11.24965      2.53462         0.429087      0.132357     -0.038311
O       9.42482     11.32037     14.92448        -0.474513     -0.896435     -0.796604
O       9.35987     11.22804      6.54053        -0.182426      0.689970      0.130460
O       9.24385     11.23514     10.76559         0.150156      0.125563     -0.685388
