  # total energy = -7866.96260604 
CRSYTAL
PRIMVEC
    15.010000000000000    0.0000000000000000    0.0000000000000000
     0.0000000000000000   15.010000000000000    0.0000000000000000
     0.0000000000000000    0.0000000000000000    16.400000000000000
PRESSURE
18.462 18.6837 9.49996 0.134136 -0.110887 0.037545
PRIMCOORD
320 1
Pb       3.58008      3.68811      3.96306         0.940020      0.082759      1.466777
Pb       3.69690      3.69424     16.33777        -0.192122      0.275375      1.057230
Pb       3.81936     14.86263      4.10331        -0.212357      1.552709      0.444251
Pb       3.75261     14.97806      0.03945        -0.235866      0.112738      0.472227
Pb       0.00490      3.77632      4.17787        -0.046272     -0.291168     -0.290239
Pb      14.95883      3.76911      0.09803        -0.127802     -0.093706     -0.479067
Pb      14.97790     14.97949      4.12719        -0.319794      0.204330      0.657847
Pb       0.04122      0.01870     16.38173        -0.385494      0.099071      0.958138
Pb       3.74206      3.72138      8.14110        -0.665177      0.243230      0.974610
Pb       3.73155      0.10082      8.20490         0.108213     -0.754192      0.358181
Pb      14.91405      3.66700      8.09377         0.146973      0.455043      1.077929
Pb       0.01314      0.08629      8.20508        -0.135702     -0.648423      0.515298
Pb       3.74349      3.66327     12.44255        -0.317000      0.209577     -0.960062
Pb       3.72115     14.97867     12.24680         0.017754      0.158255      0.471426
Pb      14.90576      3.76724     12.31049         0.271127      0.357340     -0.434843
Pb      14.93177      0.00329     12.31827         0.780327     -0.213643      0.210331
Pb       3.88358      7.51003      4.16462        -0.245294     -0.333291      0.395133
Pb       3.74740      7.58179     16.27392        -0.599832     -0.547487      1.028220
Pb       0.04499      7.51970      4.11818        -0.340668      0.141705     -0.016851
Pb       0.06704      7.44923     16.39850        -0.435730      0.323006      0.541924
Pb       3.74364      7.45228      8.34753        -0.013063      0.384324     -0.538143
Pb      15.00403      7.49470      8.13213        -0.225411     -0.257694      0.436345
Pb       3.71920      7.35109     12.39162         0.023318      0.302644     -0.349698
Pb      14.96179      7.57966     12.32004        -0.051736     -0.940696     -0.370235
Pb       3.83872     11.17191      4.02158         0.395244      0.103792      0.570943
Pb       3.75632     11.34209      0.11952        -0.277014     -0.182722     -0.284298
Pb      15.00387     11.25548      4.13673        -0.534510     -0.248285      0.070116
Pb       0.02605     11.13851      0.02575        -0.361730      0.584836      0.538526
Pb       3.71113     11.30508      8.19394         0.030401     -0.225243      0.369279
Pb      14.98241     11.28772      8.15275         0.019896      0.201696      0.005217
Pb       3.72700     11.13348     12.34142        -0.413859      0.646638      0.113902
Pb      14.96766     11.18276     12.29845         0.410721      1.012695      0.324790
Pb       7.42746      3.77295      4.12252         0.007706     -0.225815      0.899133
Pb       7.44017      3.67708      0.04771         0.470978      0.006820      0.572050
Pb       7.49378     14.99001      4.05817         0.193559      0.105623      0.480104
Pb       7.64616     14.95654      0.02554        -0.592610      0.229165      0.661907
Pb       7.44397      3.81354      8.23679         0.672511     -0.446555     -0.163699
Pb       7.40141     14.89671      8.21890         0.659591      0.450591      0.404878
Pb       7.48645      3.70334     12.38245        -0.089032      0.054874     -0.541682
Pb       7.42346      0.09602     12.23961         0.046702     -0.578127      0.519435
Pb       7.60481      7.45199      4.19499        -0.530125      0.016617      0.235504
Pb       7.45017      7.44392     16.38585         0.525269      0.107620      0.025959
Pb       7.51627      7.45988      8.10293        -0.054929      0.395050      0.396124
Pb       7.43121      7.51016     12.22839        -0.110564      0.120320      0.430478
Pb       7.43742     11.14954      4.12284         0.287087      0.053600      0.004941
Pb       7.45819     11.22361     16.37254         0.232423      0.035264      0.268306
Pb       7.49254     11.24594      8.22703         0.167835     -0.445066     -0.274113
Pb       7.45995     11.26930     12.34013         0.174089      0.050096      0.097584
Pb      11.37498      3.72583      4.14600        -1.096661      0.186400      0.074372
Pb      11.22431      3.71669      0.04431        -0.238098      0.208532      0.153866
Pb      11.17107     14.95533      4.08189         0.474761      0.177143     -0.162829
Pb      11.36188      0.00564     16.33977        -0.058028      0.057218      0.990277
Pb      11.18312      3.67500      8.28476         0.225981      0.026314      0.064602
Pb      11.21891     14.99590      8.14371         0.115875      0.145297      1.024049
Pb      11.20499      3.74062     12.35666         0.743019     -0.051355     -0.321763
Pb      11.19699     14.82786     12.29371         0.295664      0.765777      0.581400
Pb      11.24085      7.50417      4.07596         0.328583     -0.348152     -0.061564
Pb      11.28362      7.45381     16.32551        -0.630054      0.340858      1.032678
Pb      11.34796      7.50922      8.19264        -0.389796     -0.025856      0.340148
Pb      11.10857      7.56754     12.36308         0.505630      0.033957     -0.920218
Pb      11.14747     11.24997      4.09144         0.552126     -0.287552      0.022243
Pb      11.18054     11.38634     16.37480         0.552135     -0.945392      0.441341
Pb      11.30716     11.32418      8.10529        -0.308993     -0.705865      0.692790
Pb      11.22859     11.19218     12.35013        -0.162753     -0.047768     -0.330731
Ti       1.76153      1.79580      2.18780         1.622773      0.841485      0.263459
Ti       1.81932      1.84459     14.43027        -0.500814     -0.481596     -0.952810
Ti       1.86784     13.13028      2.26363        -0.120656     -0.388515     -1.011026
Ti       1.84297     13.12362     14.49868         0.118018      0.356433     -1.483468
Ti      13.10566      1.87211      2.11056        -0.085171     -0.162127      0.381770
Ti      13.13365      1.86926     14.36416        -0.032907      1.578960     -0.801796
Ti      13.11128     13.13855      2.20726        -0.355395     -0.593508     -1.186320
Ti      13.12926     13.14794     14.45848         0.950672     -0.687145     -0.033876
Ti       1.89127      1.86198      6.22154         0.264713     -0.175547      0.119219
Ti       1.85172     13.12729      6.15254        -0.171141      0.340801      1.818747
Ti      13.09756      1.79527      6.20313         0.373005     -0.355098     -0.095100
Ti      13.07876     13.12808      6.21383         1.115254      0.172330     -0.203302
Ti       1.91445      1.79562     10.29713        -0.709966      1.244532     -0.227027
Ti       1.89938     13.11633     10.30209        -0.514680     -0.652952      0.473075
Ti      13.18422      1.82282     10.36161        -0.676269      1.756988      0.131966
Ti      13.16629     13.14531     10.37460        -0.019100     -0.342470     -1.034119
Ti       1.82580      5.66814      2.15327         1.180828     -0.077385     -0.764495
Ti       1.80665      5.58171     14.44005        -0.521846     -0.474508     -0.891702
Ti      13.16441      5.63729      2.12195        -1.007773      0.318025     -0.157614
Ti      13.05230      5.67859     14.44402         0.524473     -1.378254     -0.740148
Ti       1.80206      5.61886      6.23491         0.765387      0.969786      0.591551
Ti      13.03809      5.53532      6.16481         0.764037      0.487253      0.447607
Ti       1.87319      5.55012     10.29032        -0.489138     -0.276101      0.090890
Ti      13.09657      5.69508     10.30332         1.287214     -1.165548     -0.373075
Ti       1.96812      9.41285      2.21902        -1.162742     -1.000219     -0.884526
Ti       1.83715      9.38744     14.42260         0.249617      0.488450     -0.547183
Ti      13.17040      9.39779      2.11706        -0.305623     -0.167313     -0.282710
Ti      13.16014      9.39422     14.45348        -1.263108      0.294833      0.786898
Ti       1.86432      9.35951      6.21036         0.508954      0.285373      0.785531
Ti      13.13129      9.32398      6.16139        -0.210521      0.477259      0.384400
Ti       1.81359      9.31477     10.34567         0.883000      0.403267     -0.388198
Ti      13.11120      9.44466     10.27554        -1.903249     -0.446485     -1.252307
Ti       5.63537      1.85295      2.16303        -1.277254      1.112355      0.374693
Ti       5.54418      1.76760     14.48016         1.232191      0.505176     -1.035164
Ti       5.67428     13.16127      2.13765         1.085464     -1.394213      0.320608
Ti       5.58346     13.14626     14.40311         0.160127     -0.776470      0.013098
Ti       5.68253      1.85283      6.25901         0.483296      0.612907     -1.049433
Ti       5.59398     13.14134      6.15052         0.209673     -0.380878      0.838119
Ti       5.64645      1.98404     10.22815        -0.368836     -1.051028      0.870979
Ti       5.63796     13.16731     10.38223        -0.045694      0.208562      0.617143
Ti       5.55648      5.60406      2.17651        -0.002824     -0.875990     -0.141562
Ti       5.60061      5.55118     14.49291        -0.596743      0.731950     -0.481752
Ti       5.54650      5.60192      6.32198         0.620978      0.512791     -1.511873
Ti       5.64755      5.63393     10.35050        -0.643665     -0.084130     -0.407054
Ti       5.72175      9.26099      2.02625         0.494525      2.114067      0.490732
Ti       5.56764      9.42288     14.43838         0.075007     -1.374299     -0.758378
Ti       5.58329      9.43645      6.25197         0.510338     -1.533805      0.026680
Ti       5.52878      9.41200     10.37679        -0.366052     -0.688059     -1.262989
Ti       9.38733      1.84268      2.24678        -0.507289      0.946933     -1.000993
Ti       9.34254      1.81408     14.48823         0.225591      0.343130      0.416924
Ti       9.36037     13.03740      2.12001        -0.636547      0.165597     -0.411182
Ti       9.33590     13.10911     14.46770         0.126057      0.419096     -0.706956
Ti       9.39559      1.77497      6.17682        -0.741594      1.808482      0.523241
Ti       9.30907     13.09036      6.19952        -0.299555     -0.926063      0.057004
Ti       9.42346      1.82319     10.46899         0.157777      0.702238     -1.824596
Ti       9.39750     13.11297     10.33744        -0.672027     -0.216083      0.264741
Ti       9.32850      5.57240      2.26516         1.254733     -0.043770     -1.284870
Ti       9.30065      5.56260     14.40576        -0.123719      0.068964      0.218252
Ti       9.40029      5.58034      6.25859        -0.458802     -0.651931     -0.772708
Ti       9.42853      5.61285     10.31785        -0.397211      0.004497     -0.673977
Ti       9.40336      9.30837      2.16003        -0.117314      0.173558     -1.074158
Ti       9.36183      9.32519     14.44859        -0.262786      0.866403     -0.152989
Ti       9.41777      9.31173      6.16213        -0.790836      0.824322      1.168365
Ti       9.26745      9.40464     10.26453         1.603501     -0.463298     -0.550093
O       1.69142      1.89588      0.42635         0.427808     -0.302004     -1.077316
O       1.85350      1.94465     12.59096         0.204823     -0.485303      0.967615
O       2.07186     13.09503      0.46054        -0.420906      0.152258     -0.050784
O       1.75617     13.13587     12.69265         0.173878      0.189758      0.102912
O      13.16682      1.86185      0.30651        -0.174109      0.281792     -0.018699
O      13.26825      2.03309     12.49556        -0.340089     -0.778145      1.783683
O      12.94046     13.10709      0.37039         0.552993      0.316959      0.228196
O      13.23427     13.11156     12.65119        -0.258800      0.284308      0.412191
O       1.83174      1.88663      4.44395         0.118687     -0.057419     -0.228648
O       1.76774     13.08431      4.40885         0.687101      0.089437     -1.049268
O      13.01870      1.83995      4.41868         0.377421     -0.371471     -0.240089
O      13.04444     13.23758      4.39584         0.093828     -0.186020      0.122534
O       1.89331      1.79211      8.43609         0.132229      0.055636      0.231400
O       1.89560     13.19755      8.49470        -0.110834     -0.143863      0.481192
O      13.00822      1.75308      8.55655         0.277292      0.322686     -0.653887
O      13.18378     13.15198      8.52702        -0.215872     -0.364712      0.656702
O       1.79787      5.66472      0.28201         0.207921     -0.202987      0.609777
O       1.98453      5.52410     12.60009        -0.792150     -0.059279      0.850671
O      13.22233      5.57362      0.27205        -0.493024      0.293042      0.726576
O      13.06524      5.58603     12.61187         0.087661      0.481448      0.478110
O       1.82181      5.75670      4.45203        -0.060972     -0.470389     -0.291370
O      13.19857      5.58330      4.35522        -0.203070     -0.006294      0.697778
O       1.90670      5.71764      8.46851        -0.283219     -0.302660      0.518118
O      12.97943      5.63052      8.48226         0.558567     -0.104710     -0.139255
O       1.83720      9.35918      0.39679         0.183697      0.270520     -0.206768
O       1.78894      9.41543     12.59700        -0.040205     -0.332891      1.226283
O      13.20886      9.35909      0.29714        -0.336956      0.157628      0.487659
O      13.07141      9.30579     12.66845         0.141502      0.167356     -0.463824
O       1.84071      9.38030      4.41427         0.251000      0.086920     -0.421108
O      13.13978      9.42296      4.35540        -0.021452     -0.188769      0.826210
O       2.01171      9.36950      8.51371        -0.518276      0.000183      0.894577
O      13.06075      9.49796      8.37687         0.342964     -0.365179      2.072145
O       5.60399      1.86361      0.37478        -0.091471      0.087819     -0.737920
O       5.54819      1.84370     12.62270         0.164441      0.076156      1.197292
O       5.63277     13.00790      0.34629        -0.143924      0.505691     -0.400496
O       5.63642     13.18920     12.63803        -0.066375      0.178272     -0.564632
O       5.62194      1.85858      4.44539        -0.011573     -0.223107      0.430935
O       5.75833     13.06413      4.38980        -0.696924      0.473717     -0.092799
O       5.62374      1.92301      8.44317         0.014244     -0.301621      0.034225
O       5.69099     13.06654      8.61759        -0.259548      0.157634     -0.979188
O       5.53461      5.58906      0.34758         0.115175     -0.111390      0.176031
O       5.64681      5.75276     12.68987        -0.132813     -0.809582     -0.569407
O       5.61415      5.52199      4.47369        -0.239177      0.968657      0.453518
O       5.64339      5.60022      8.49805        -0.108282     -0.061644      0.260089
O       5.77046      9.40758      0.19399        -0.696010     -0.271481      0.757099
O       5.59980      9.17282     12.61175        -0.195613      0.766354     -0.044593
O       5.68575      9.33906      4.41471        -0.727616      0.001805      0.201524
O       5.44380      9.41819      8.46849         0.355602      0.157608      1.164499
O       9.28354      1.94304      0.40230         0.295022      0.038301     -0.012643
O       9.32213      1.86799     12.70526        -0.032931     -0.206906     -0.671460
O       9.25215     13.09064      0.26399         0.652615     -0.410313      0.890574
O       9.40342     13.16782     12.64954        -0.141471      0.015546      0.395778
O       9.34375      1.93040      4.40533         0.109087     -0.822152     -0.269497
O       9.22936     12.93859      4.40939         0.895753      0.926487      0.630895
O       9.63658      1.82505      8.62097        -0.837697      0.128382      0.483277
O       9.30816     13.14359      8.54260        -0.023649     -0.199119      0.185156
O       9.33918      5.57493      0.41045        -0.259384      0.159743     -0.055223
O       9.40009      5.52771     12.60134        -0.478404      0.418557      0.466858
O       9.48463      5.64377      4.40766        -0.405252      0.108400      0.181705
O       9.40345      5.64103      8.42875         0.112954     -0.187006      1.343884
O       9.38019      9.37097      0.31615        -0.568108     -0.317664      0.012243
O       9.34603      9.46354     12.60399         0.042054     -0.590672      0.582915
O       9.47203      9.37451      4.36728        -0.265040     -0.163871      0.125331
O       9.36806      9.29915      8.43995        -0.277057      0.160450      1.494050
O       3.63889      1.74309      2.38111         1.103709     -0.020364      0.253309
O       3.69669      1.92683     14.82208        -0.131195      0.242828     -0.283206
O       3.83420     13.16367      2.54912        -0.451507     -0.204135     -0.382725
O       3.72116     12.96106     14.64696         0.695420      0.098131      0.645745
O      14.97102      1.83643      2.54163        -1.228628      0.392626      0.018335
O      14.94454      1.68150     14.69131         1.124158      0.043052      0.066667
O      14.98506     13.09231      2.42240         0.007018     -0.235120     -0.111381
O       0.01258     13.30854     14.96001        -1.131713     -0.754524     -0.725825
O       3.85539      1.63242      6.51737        -2.390688      0.302938     -0.236849
O       3.70806     13.41378      6.49885         0.427404     -0.349455     -0.361494
O       0.00621      2.02481      6.45110        -0.955413      0.498872      0.138148
O      15.00928     12.96819      6.42171        -0.464566     -0.313791      0.293538
O       3.74251      1.83216     10.54371         0.543248     -0.123410      0.232708
O       3.77443     13.24089     10.72535        -0.347433     -0.533710     -0.513624
O       0.06129      1.75846     10.52850        -1.002441      0.247274      0.056940
O      14.99811     12.96523     10.64031         0.882965      0.664219     -0.302724
O       3.70525      5.66469      2.52251        -0.046723      0.303853     -0.277972
O       3.66699      5.44698     14.66870         0.429970     -0.357735      0.375072
O       0.03958      5.59808      2.54839        -0.956247     -0.209735     -0.474026
O      14.92619      5.73757     14.69623         0.992937      0.016557     -0.347064
O       3.71466      5.79472      6.47736        -0.282488      0.081229      0.212911
O      14.95505      5.48736      6.60288        -0.496285     -0.290809     -0.377305
O       3.71961      5.55424     10.56630         0.478716      0.373215      0.255339
O      14.99702      5.74681     10.56939        -0.483795     -0.457008      0.245440
O       3.87678      9.48659      2.39760        -0.722461     -0.583766     -0.123668
O       3.65462      9.61082     14.79630         0.431982     -0.610082     -0.153348
O       0.00789      9.57025      2.49077         0.508136     -0.305151     -0.428297
O      15.00346      9.29858     14.83688         0.345636      0.066000     -0.660831
O       3.70879      9.10055      6.41689         0.501831      0.455756     -0.110264
O      14.99659      9.48456      6.62923        -0.142684      0.135291     -0.756436
O       3.68979      9.28347     10.77054         0.039944      0.122059     -0.452685
O      14.91290      9.45805     10.65722         1.134221     -0.516332     -0.320586
O       7.43284      1.97461      2.49281         1.161916      0.175013     -0.253597
O       7.46389      1.63430     14.74576        -0.350422      0.258166     -0.189800
O       7.55884     13.14772      2.55047        -1.144324      0.151403     -0.776304
O       7.48543     13.24953     14.69877        -0.126951      0.051416     -0.023104
O       7.55895      2.06967      6.58060        -0.205109     -0.157401      0.037044
O       7.46214     12.92292      6.55648        -0.262460      0.001035      0.079579
O       7.48709      1.97075     10.52804         0.791045      0.117739      0.552892
O       7.48162     13.08894     10.76427         0.452109     -0.147719     -0.461718
O       7.47489      5.57143      2.59410        -0.786264      0.229463     -0.873840
O       7.40838      5.74021     14.78533         0.891441     -0.023920     -0.187113
O       7.54055      5.37326      6.47743        -0.964352      0.388063      0.123329
O       7.48712      5.61466     10.56422         0.466162     -0.225080      0.258836
O       7.52911      9.31853      2.55179        -0.457151     -0.531107     -0.655802
O       7.38619      9.20642     14.58747         1.969199     -0.025393      0.465331
O       7.51129      9.44935      6.43699        -0.472025      0.474725      0.387860
O       7.39821      9.38530     10.50518         0.833440      0.033576      0.366193
O      11.21941      1.84866      2.47976         0.626478     -0.110215     -0.264464
O      11.28303      2.01850     14.71235        -1.088605     -0.145026     -0.002351
O      11.16319     13.11104      2.51241         0.457988      0.150818     -0.136633
O      11.28457     13.11332     14.72029        -0.763029      0.030129     -0.140856
O      11.23250      1.57689      6.44276         0.024407     -0.378419     -0.005038
O      11.21565     13.20664      6.54898        -0.246529      0.347173     -0.556451
O      11.28257      1.83291     10.78444        -0.667475     -0.286829      0.022592
O      11.27005     13.11149     10.75280        -0.318789      0.317650     -0.614162
O      11.31954      5.76485      2.37626        -0.111447     -0.432122     -0.046044
O      11.14171      5.49919     14.73195         0.730782      0.042024      0.144560
O      11.26406      5.72486      6.40942         0.215684      0.687701      0.318762
O      11.28816      5.66217     10.65071        -1.955389     -0.308521      0.128352
O      11.23777      9.37519      2.46083         0.586672     -0.204050     -0.362411
O      11.23430      9.42306     14.80437        -0.009474     -0.015144     -0.539951
O      11.23434      9.21868      6.57469         1.050551      0.289178     -0.870457
O      11.19835      9.46129     10.60847         0.010486     -0.314133      0.083229
O       1.88240      3.78206      2.46544        -0.662167     -0.620819     -0.466247
O       1.65047      3.63401     14.79247         0.306625      1.543735     -0.072465
O       1.77948     14.94635      2.61208         0.414247      0.369863     -0.483414
O       1.98767     14.99679     14.87478        -0.012175      0.597922     -0.071702
O      13.03740      3.73801      2.47716         0.799228      0.128032     -0.616079
O      13.25504      3.77763     14.70865        -0.112127     -0.458637      0.039228
O      13.03354      0.01602      2.36257         0.114035     -0.421169      0.363567
O      13.04549      0.03643     14.62797        -0.319556     -0.649267      0.173944
O       1.97500      3.79361      6.55487         0.018890     -1.118776     -0.257366
O       1.48673      0.04186      6.43731         1.419304     -0.773829     -0.375321
O      12.81473      3.60790      6.45121         0.812126      1.690594      0.380737
O      13.35484     14.97451      6.61008        -0.645724     -0.164927     -0.676330
O       1.77905      3.67209     10.58501         0.190062      0.692344     -0.334193
O       1.87580     14.95479     10.68318        -0.267762     -0.213694     -0.122675
O      13.06766      3.72973     10.52050         0.534248      0.526290      0.089842
O      13.18415      0.01308     10.73779        -0.440454     -1.710232     -0.048441
O       1.78330      7.54577      2.42992         0.325648     -0.032874      0.037396
O       1.92858      7.47120     14.56721         0.247347      0.688834      0.442347
O      13.24916      7.52258      2.36896         0.116872     -0.259723      0.103681
O      13.03976      7.53654     14.75381        -0.108044     -0.714470     -0.205679
O       1.69030      7.53212      6.53539        -0.287944     -0.633513     -0.223863
O      13.25712      7.45463      6.43821        -0.048338      0.202622     -0.010642
O       1.78479      7.48530     10.70732         0.274486      0.090042     -0.255491
O      12.97526      7.55119     10.52898         0.564963      0.820034      0.245758
O       1.99242     11.24775      2.53002        -0.247703      0.735741     -0.155587
O       1.73673     11.33816     14.74836        -0.455630     -2.495563      0.290880
O      12.99990     11.25908      2.41570         0.213546      0.522846      0.157348
O      13.18006     11.26714     14.76200         0.246128     -0.043025     -0.167321
O       2.03234     11.27711      6.55429        -0.029395     -0.338484     -0.369759
O      13.02974     11.27425      6.44684        -0.169604     -0.444547     -0.099399
O       1.96147     11.20103     10.76413        -0.203689      0.836542     -0.939168
O      13.10406     11.28363     10.74474        -0.351080     -0.511113     -0.400488
O       5.42655      3.74074      2.62616         0.818302     -0.125215     -1.470437
O       5.73852      3.66900     14.74098        -0.410230      0.256015     -0.202038
O       5.77103      0.03727      2.48211        -0.787800     -1.269850     -0.163771
O       5.40324     14.95594     14.75262         0.170683      0.331011      0.203996
O       5.40203      3.72019      6.64432         0.852639      0.196717     -0.847993
O       5.79885     14.95566      6.49596         0.308428      0.427774      0.124921
O       5.55731      3.74803     10.70731         0.141693      0.795918      0.137651
O       5.79069      0.11661     10.60785        -0.941268     -1.487834     -0.347880
O       5.59779      7.49121      2.29374         0.079753     -0.764052      0.401585
O       5.33770      7.47180     14.71816         0.501270     -0.054362      0.022318
O       5.78994      7.51005      6.48987        -0.122090     -0.645167      0.038571
O       5.56132      7.47283     10.57056         0.139094      0.332885      0.010341
O       5.81374     11.25058      2.38132        -0.775449     -0.163177     -0.159829
O       5.75485     11.23399     14.56718        -0.016696      0.710129      0.325065
O       5.40238     11.27926      6.48704        -0.155473      0.067926      0.079293
O       5.54243     11.25170     10.74421         0.005400      0.098680     -0.252777
O       9.45950      3.75107      2.51340        -0.092893     -0.130534     -0.153036
O       9.09905      3.71393     14.77547         0.411892     -0.078165     -0.363252
O       9.30074     14.99367      2.34354         0.131505     -0.252914      0.456193
O       9.48119     14.99739     14.99473        -0.009150      0.207884     -1.332818
O       9.63879      3.74720      6.43979        -0.053416     -1.382574      0.390977
O       9.11420     14.94952      6.55056         0.525008     -0.000472     -0.500010
O       9.33196      3.75234     10.75190         0.505250     -0.004718     -0.531629
O       9.25184     14.97325     10.65170         0.503197      0.308619      0.186588
O       9.39085      7.46335      2.50194        -0.391185      0.313574     -0.085209
O       9.38878      7.48375     14.63941         0.156844     -0.571859      0.203433
O       9.23631      7.47537      6.44637        -0.029374     -0.032799     -0.051265
O       9.32515      7.47711     10.65168         0.241366      0.547012     -0.069584
O       9.25569     11.19771      2.43034         0.523112      0.105562     -0.329704
O       9.33597     11.27445     14.66045        -0.367590     -0.682169      0.212431
O       9.48309     11.18641      6.61816        -0.066477      0.895324     -0.532031
O       9.38377     11.26721     10.67014        -0.512303     -0.295342     -0.339993
