  # total energy = -7881.42038387 
CRSYTAL
PRIMVEC
    15.3600000000000000    0.0000000000000000    0.0000000000000000
     0.0000000000000000   15.3600000000000000    0.0000000000000000
     0.0000000000000000    0.0000000000000000    17.440000000000000
PRESSURE
1.19904 0.901682 1.1912 0.064935 0.416421 0.019179
PRIMCOORD
320 1
Pb       3.73630      3.84241      4.27596         0.310947      0.152246      0.471553
Pb       3.80409      3.84307     17.35817         0.399564      0.299722     -0.572614
Pb       3.81453      0.02699      4.24371         0.261509     -0.469871      0.312284
Pb       3.78779      0.06960      0.05252         0.352040     -0.546181     -0.780934
Pb      15.30547      3.79378      4.35919         0.286098      0.459408     -0.597076
Pb      15.33254      3.89050     17.40755         0.041832      0.389687     -0.432694
Pb      15.26516     15.26606      4.29508         0.305906      0.367799     -0.002728
Pb      15.28061     15.29543      0.02836         0.032093     -0.455900     -0.335311
Pb       3.80550      3.76814      8.75046         0.220431      0.024667     -0.565467
Pb       3.85413     15.31375      8.73491        -0.111206     -0.116837     -0.569015
Pb       0.02524      3.71682      8.69550        -0.138868      0.569755     -0.483558
Pb       0.00320      0.03460      8.65396        -0.043393     -0.453098     -0.001096
Pb       3.65724      3.85913     13.03254         0.994906     -0.987590      0.783349
Pb       3.78632     15.24306     13.12239         0.145647      0.601938      0.007225
Pb      15.30057      3.80926     13.03804         0.235036      0.375432      0.177874
Pb       0.03361      0.03516     13.01601        -0.004317     -0.687537     -0.379278
Pb       3.82186      7.62659      4.27864         0.181125      0.145697     -0.156041
Pb       3.76718      7.66925     17.38414         0.108789      0.307282     -0.079131
Pb      15.33154      7.64870      4.39019        -0.183431     -0.162322     -0.876242
Pb      15.23686      7.71587     17.33900         0.555763     -0.025253      0.097622
Pb       3.93931      7.59189      8.77568        -0.827081      0.503856     -0.190823
Pb       0.05303      7.62245      8.74304        -0.000506     -0.372544     -0.971073
Pb       3.77017      7.68395     13.01832         0.466244      0.434908     -0.039223
Pb       0.04963      7.65565     13.00507        -0.273452      0.033796      0.001860
Pb       3.75683     11.50610      4.24448         0.185745      0.200112      0.197055
Pb       3.90699     11.47920     17.43758        -0.360118     -0.119777     -0.441866
Pb      15.29853     11.55175      4.31631         0.430746     -0.584467     -0.387734
Pb      15.32673     11.51960     17.38425         0.754293     -0.178937      0.065966
Pb       3.75458     11.54366      8.64688         0.320496     -0.274834     -0.276901
Pb      15.31129     11.40116      8.65138         0.161492      0.703130     -0.594373
Pb       3.78950     11.54641     13.10715         0.728619     -0.292896      0.056065
Pb      15.29369     11.49180     13.15418         0.365816      0.203199     -0.411045
Pb       7.67964      3.78443      4.42619        -0.108902      0.484215     -0.678067
Pb       7.63372      3.90385     17.32185         0.570834     -0.386879     -0.346371
Pb       7.71145      0.09635      4.23711        -0.740599     -0.388436      0.130696
Pb       7.72352      0.01001     17.42012        -0.172596      0.108824     -0.508546
Pb       7.72477      3.66437      8.76870        -0.606655      0.644269     -0.051329
Pb       7.62546     15.21101      8.63664         0.051697      0.221721     -0.001493
Pb       7.65300      3.79454     13.19556        -0.265545     -0.435928     -0.641059
Pb       7.57763     15.31995     13.14482         0.384822     -0.074961     -0.187210
Pb       7.60366      7.65189      4.31271         0.393273     -0.457449      0.025198
Pb       7.75790      7.62085     17.41033        -0.489056      0.499733     -0.380429
Pb       7.54522      7.69579      8.68145         0.655700     -0.088767     -0.345137
Pb       7.53933      7.62043     12.99830         0.224803      0.190987     -0.412417
Pb       7.67509     11.52223      4.34285        -0.319742      0.317932     -0.631277
Pb       7.75696     11.50204      0.07393        -0.174957     -0.432482     -0.503434
Pb       7.54020     11.43197      8.67301         0.428765     -0.159132     -0.165862
Pb       7.62092     11.39722     13.10664        -0.149080      0.407910     -0.271992
Pb      11.44744      3.82011      4.38967         0.181204      0.271780     -0.479341
Pb      11.56768      3.82539     17.35253        -0.745768      0.088587     -0.559729
Pb      11.37804      0.02018      4.28382         0.402512     -0.058465     -0.346346
Pb      11.60086     15.34518     17.36895        -0.067876     -0.380560     -0.145888
Pb      11.47419      3.81473      8.73627         0.230513      0.021420     -0.210332
Pb      11.49647     15.22087      8.64618         0.448566      0.392089     -0.211773
Pb      11.53245      3.83226     13.08691        -0.438323      0.037359     -0.304242
Pb      11.56627     15.33244     12.94852        -0.050682      0.009226     -0.003933
Pb      11.42426      7.79252      4.31591         0.459161     -0.966683      0.010574
Pb      11.56524      7.58584     17.41164        -0.168246      0.615751     -0.583795
Pb      11.41716      7.60311      8.73307        -0.273890     -0.262904     -0.826779
Pb      11.54802      7.73060     12.88655        -0.489310     -0.320129      0.412998
Pb      11.49703     11.47784      4.44590         0.286304      0.318478     -0.976432
Pb      11.55904     11.51577      0.01043        -0.269565     -0.223756     -0.170168
Pb      11.51149     11.53137      8.73071        -0.141866     -0.129796     -1.108013
Pb      11.45277     11.45002     12.99653        -0.554761      0.381361     -0.103503
Ti       1.94638      1.94087      2.22151        -0.701341      0.199980      2.067056
Ti       1.86763      1.89982     15.45325         0.635962      0.275838     -0.710867
Ti       1.92670     13.50285      2.33140         0.326155     -1.276032     -1.782090
Ti       1.96962     13.44216     15.39762         0.261287     -0.502010      1.257901
Ti      13.50431      1.87618      2.29167        -1.088674      0.126543      0.946391
Ti      13.43965      1.91891     15.34589         0.319123     -0.533550      0.698064
Ti      13.45441     13.38446      2.33681        -0.463500     -0.310495     -0.706268
Ti      13.46770     13.38788     15.35824         0.364304      0.352313      1.280050
Ti       1.89254      1.86910      6.63222         0.067970      0.514826     -0.607976
Ti       1.93436     13.41500      6.65292         0.800518     -0.107972      0.178239
Ti      13.40827      1.99710      6.61058        -0.151545     -0.804461      2.877643
Ti      13.50741     13.49724      6.61525        -0.389488     -0.458515      0.240622
Ti       1.87203      1.93235     11.03137         1.667027     -0.796053     -0.249232
Ti       2.05073     13.45939     11.03954        -2.736895      0.627851     -0.015245
Ti      13.47011      1.95576     10.99618        -0.399127     -0.786339     -1.337897
Ti      13.46521     13.38467     11.03550         1.116537      1.795275     -0.405197
Ti       1.91324      5.76866      2.31660        -1.134948     -0.337226     -0.215694
Ti       1.92353      5.77572     15.38053        -0.603568      0.271795      1.097381
Ti      13.36289      5.75237      2.27274         1.756590      0.212363      1.896024
Ti      13.42393      5.72177     15.28901         0.088008      0.787080     -0.373232
Ti       1.97411      5.70156      6.59507        -1.532939      0.329741      1.470095
Ti      13.47968      5.71743      6.71874        -0.352430      0.914434      1.080627
Ti       1.95782      5.73980     11.04575        -0.676702      0.018535     -1.121829
Ti      13.42342      5.78224     11.07238        -0.155596     -0.216009      1.211313
Ti       1.93719      9.56919      2.32215        -0.303506     -0.160389     -0.887316
Ti       1.93051      9.57854     15.35134         0.521199      0.467879      2.830074
Ti      13.40681      9.51460      2.31329         0.905406      0.715431      1.545707
Ti      13.42836      9.62675     15.32388        -0.040740     -1.047492      1.070821
Ti       1.87751      9.52804      6.64233         0.488158      0.995988      0.958820
Ti      13.39227      9.54891      6.64511         0.487328      0.329598      0.025089
Ti       1.85590      9.72635     11.03139         1.107494     -1.186983      0.678944
Ti      13.40223      9.63587     10.96370         0.585638     -0.401031      0.687533
Ti       5.69904      2.00446      2.27906         1.130675     -0.746256      0.051755
Ti       5.75920      1.89912     15.38551         0.020213      0.479308     -0.218805
Ti       5.73473     13.48386      2.23087         0.163619     -0.251066      0.265776
Ti       5.81599     13.42296     15.56537        -1.005684     -0.551778     -1.741464
Ti       5.71842      1.94197      6.63763         0.331442      0.112668      1.066958
Ti       5.79872     13.42089      6.56890        -0.761874     -0.095348     -0.135742
Ti       5.74760      1.82143     11.06900         0.360234      1.620563      1.056130
Ti       5.83789     13.40569     11.09678        -0.271600     -0.966291      0.243679
Ti       5.78930      5.75482      2.27728         0.034755      0.031253      1.262079
Ti       5.75459      5.77066     15.33451        -0.164276      0.069401      0.449023
Ti       5.64979      5.83130      6.72105         1.598926     -1.535582      0.521654
Ti       5.68321      5.63383     11.07707         1.774528      0.253481      1.329877
Ti       5.78304      9.61946      2.35971        -0.376301     -0.203442     -0.516729
Ti       5.80902      9.56644     15.39299        -0.194380     -0.061305      0.335712
Ti       5.64496      9.65198      6.56171         0.505301     -0.129112      0.898803
Ti       5.67216      9.58292     10.99521         0.326617      0.728739      1.776919
Ti       9.57647      1.96163      2.27828        -0.056530      0.006328     -0.917221
Ti       9.70687      1.79743     15.37363        -1.586734      1.064755      1.129381
Ti       9.57283     13.48994      2.22917         0.342744     -0.707693     -0.478080
Ti       9.63666     13.32025     15.40502        -0.599268      0.341315      0.060861
Ti       9.57285      1.87286      6.74286         0.310109     -0.262787      0.515639
Ti       9.62206     13.37730      6.59652        -0.036522     -0.313864      0.693716
Ti       9.67539      1.85986     11.04383        -1.660811      0.924167      0.012465
Ti       9.56296     13.41303     10.99927        -0.267203     -0.200564      1.277135
Ti       9.67504      5.77240      2.27551        -1.212648      0.091437      0.741667
Ti       9.54055      5.83320     15.24414         0.775423     -1.130278     -0.188558
Ti       9.55702      5.68391      6.70977         0.133886      1.928517     -0.827085
Ti       9.55330      5.74161     11.14573        -0.544489     -0.201372     -0.597636
Ti       9.59120      9.64163      2.32922         0.378856     -0.352375     -0.401456
Ti       9.64755      9.55217     15.32253        -0.824801      0.226725      1.753989
Ti       9.62662      9.58638      6.48860        -1.060173     -0.369273      4.172116
Ti       9.50507      9.59882     10.94426        -0.723312     -0.247700      0.057033
O       2.11336      1.99236      0.50583        -0.517273     -0.088979     -1.379477
O       1.84599      2.08193     13.69175        -0.214477     -0.650440      0.102580
O       1.98202     13.56392      0.49025        -0.148493     -0.241512      1.483601
O       1.81808     13.60092     13.66378         0.303947     -0.570087     -1.419153
O      13.32380      1.71649      0.58760         0.103218      0.602466     -1.407665
O      13.48640      2.04300     13.61304        -0.090592     -0.444090     -0.952077
O      13.62663     13.36708      0.56052        -0.444106      0.354617     -0.632002
O      13.54637     13.49599     13.64995        -0.008289     -0.101277     -1.451207
O       1.86574      2.02771      4.85906         0.061299     -0.682312      0.255749
O       2.10411     13.33855      4.90431        -0.733067      0.494983     -0.667523
O      13.52622      1.95134      4.92230        -0.154842      0.003042     -2.597805
O      13.55804     13.49268      4.83694        -0.402790     -0.234374     -0.610868
O       2.03870      1.86083      9.24748        -0.575681      0.329546      0.167027
O       1.96157     13.63209      9.29573         0.371605     -0.614990     -0.445572
O      13.48789      2.00920      9.16757        -0.125234     -0.199473      1.386820
O      13.45773     13.47893      9.26258        -0.264504     -0.406148     -0.078352
O       1.88732      5.81066      0.54781         0.033915     -0.415982     -0.217862
O       1.87502      5.73413     13.64973         0.061213      0.313801     -1.384925
O      13.43617      5.82151      0.56355        -0.376786     -0.321360     -2.111851
O      13.53583      5.71270     13.51013        -0.346464      0.107730      0.031401
O       1.81891      5.73932      4.87317         0.491337      0.016460     -1.289012
O      13.29925      5.67268      5.03171         0.414941     -0.037812     -2.086408
O       2.00363      5.64311      9.25324        -0.221668      0.329038      0.941151
O      13.48508      5.75121      9.37315        -0.119652      0.071434     -1.949340
O       2.01299      9.44591      0.52752        -0.247374      0.284125      1.146610
O       1.91392      9.56954     13.64602        -0.013594      0.051760     -1.929118
O      13.54815      9.50054      0.62586        -0.284888      0.054741     -2.979968
O      13.39770      9.51717     13.60887         0.033471      0.548821     -1.300286
O       2.01375      9.67939      4.91698        -0.394811     -0.482788     -0.992068
O      13.38600      9.62882      4.85597        -0.078661      0.003442      0.005006
O       2.01456      9.69691      9.29883        -0.795373      0.014087     -0.481093
O      13.59729      9.80096      9.22436        -0.607383     -0.546669     -0.105583
O       5.63527      1.99547      0.51869         0.295367     -0.025014      0.054746
O       5.78903      2.17728     13.64399        -0.000889     -1.281791     -0.058890
O       5.67533     13.57901      0.46199         0.028799     -0.406840     -0.229349
O       5.91321     13.32473     13.72069        -0.374925      0.277935      0.043938
O       5.93836      1.83053      4.90055        -0.407781      0.421547     -0.342688
O       5.76887     13.36939      4.79778         0.121067      0.117048      0.309460
O       5.68814      1.93580      9.31104         0.219046     -0.255124     -0.238004
O       5.85011     13.53204      9.35096        -0.269676     -0.109753     -0.593806
O       5.80572      5.78282      0.55490         0.095076     -0.079200     -0.824500
O       5.74202      5.80577     13.59300         0.060772     -0.128461     -0.966484
O       5.76014      5.74393      5.00054        -0.032331      0.124547     -0.856101
O       5.54095      5.72445      9.36644         0.111429     -0.051633     -1.766292
O       5.83458      9.49201      0.62278        -0.004338     -0.163437     -0.853072
O       5.69606      9.64725     13.64583         0.109456      0.014474     -0.741416
O       5.67511      9.63028      4.80223         0.102285     -0.031547     -0.243152
O       5.68655      9.71551      9.28723         0.223798     -0.408104     -1.767063
O       9.34136      2.01046      0.51314         1.135566     -0.318437     -0.179523
O       9.82793      1.79098     13.69179        -0.343940      0.199266     -2.103821
O       9.61315     13.43057      0.43129        -0.027155      0.121300      0.621478
O       9.45546     13.26230     13.67175         0.420295      0.263813     -0.577483
O       9.61316      1.85564      4.98476        -0.228047     -0.009153     -0.623214
O       9.58573     13.32507      4.85458         0.212975      0.306784     -1.057579
O       9.61109      2.01819      9.25462         0.383695     -0.203447     -0.126583
O       9.61219     13.30043      9.27402         0.205806      0.326720     -1.205698
O       9.58767      5.71628      0.52073         0.328523      0.112003     -0.006605
O       9.52630      5.96095     13.46075        -0.029912     -0.298768      0.308764
O       9.67699      5.77926      4.92501        -0.297548     -0.584273      0.289480
O       9.65304      5.78328      9.36037         0.113421     -0.078078     -0.924501
O       9.62945      9.60102      0.58678        -0.259864      0.046164     -0.560448
O       9.63617      9.65067     13.60875         0.305214     -0.169669     -1.324686
O       9.62572      9.66598      4.79913         0.343843      0.289112     -2.852683
O       9.38924      9.63148      9.15330         0.643033     -0.116830      0.925490
O       3.84115      1.89032      2.70579         0.160662      0.006796      0.133959
O       3.84980      1.93152     15.68285        -0.951911      0.569016      0.674933
O       3.85822     13.51354      2.70770        -0.355010     -0.108264     -0.052269
O       3.82783     13.26008     15.67193         0.479899      0.614909      0.443665
O       0.04818      1.92182      2.54261         0.126805      0.268245      0.190550
O      15.25184      1.87507     15.85652         1.492551     -0.059422      0.259539
O       0.00773     13.41618      2.70967         0.436467     -0.253080      0.446924
O       0.10893     13.30247     15.82758        -1.238448      0.582551      0.081206
O       3.85066      1.96705      6.94157         0.154232     -0.305065      0.167919
O       3.82872     13.45352      7.03609         0.910993      0.094018      0.398618
O      15.33566      1.88457      7.04739         0.579935      0.381353      0.184116
O       0.05815     13.49130      6.93993        -0.747487      0.227027      0.391273
O       3.81533      1.92031     11.49108         0.254459      0.466866     -0.016686
O       3.83159     13.39093     11.45912         1.086705     -0.075013      0.488406
O       0.01240      1.97123     11.38000        -0.316452     -0.277803      0.047789
O       0.05956     13.66824     11.34767        -0.379405     -1.174690      0.475991
O       3.80568      5.75339      2.69104         0.977242     -0.250526      0.182958
O       3.82476      5.72223     15.71513         0.065618      0.052693      0.223778
O      15.32788      5.72107      2.65934         0.346486     -0.122393      0.582013
O      15.27663      5.64087     15.70316         0.356393      0.569580      0.600784
O       3.79085      5.74621      7.10241         0.581674     -0.015130      0.032445
O       0.01922      5.74651      7.01368         0.663292      0.254115      0.621602
O       3.84950      5.58087     11.46878        -1.365069      0.592082      0.168449
O      15.33602      5.86664     11.40175         0.601160     -0.444279      0.046011
O       3.87178      9.55718      2.62716        -0.753425     -0.241899      0.587236
O       3.93130      9.38403     15.72752        -0.750201      0.595270      0.391628
O       0.02608      9.55487      2.68322         0.537855      0.287385      0.630005
O       0.02826      9.56591     15.78397        -0.370645      0.252664     -0.243777
O       3.81152      9.62877      7.06836         0.122539      0.262421      0.073953
O      15.31681      9.63546      7.00745         0.882256      0.057185      0.342016
O       3.81878      9.80698     11.42043        -0.926897     -0.769123      0.379683
O      15.30695      9.58339     11.51665         0.340751     -0.030172     -0.381747
O       7.70143      1.94256      2.76713        -0.781552      0.337426      0.058479
O       7.66423      1.87941     15.65057         0.649673     -0.324063      0.492216
O       7.67319     13.44718      2.53037         0.177732     -0.298974      0.368918
O       7.64362     13.52148     15.85130         1.449659     -0.539892      0.549333
O       7.67775      1.88921      7.21061         0.322265     -0.019287     -0.414979
O       7.70908     13.39491      6.93772         0.334339      0.057548      0.414366
O       7.73278      1.80718     11.49108        -0.730155      0.551159      0.039052
O       7.66958     13.29599     11.37392         0.364935      1.039410      0.457100
O       7.76656      5.75586      2.78528        -0.269278     -0.152532     -0.190923
O       7.69422      5.68427     15.66220         0.044847      0.546145      0.334749
O       7.59536      5.82451      7.17990         0.989219     -0.057201     -0.114321
O       7.62464      5.84948     11.28926        -0.269740     -0.197855      0.670398
O       7.66469      9.63398      2.66683         0.760148     -0.234853      0.729566
O       7.72671      9.54237     15.70750         0.354832      0.203773      0.427760
O       7.58035      9.63759      6.88273         0.607827     -0.065791      0.204409
O       7.65352      9.59138     11.42393        -0.106463     -0.152856     -0.099885
O      11.53784      1.75653      2.70543        -0.185848      0.394419      0.166098
O      11.57863      1.87759     15.70630        -0.434730     -0.163325      1.097049
O      11.53029     13.46746      2.52173        -0.596896      0.746509      0.722571
O      11.54097     13.23960     15.70422         0.605077      0.536132      0.256485
O      11.52522      2.03463      7.02766        -0.241349     -0.277138      0.161883
O      11.55639     13.44038      6.93143        -0.065600     -0.070855      0.582253
O      11.54349      1.92786     11.44531         0.449350     -0.549416     -0.010494
O      11.48238     13.48470     11.38840         0.678033     -0.316255      0.222012
O      11.53083      5.80429      2.68139        -0.563043     -0.239594      0.227927
O      11.55646      5.76946     15.53933        -0.472785      0.012707      0.868759
O      11.51798      5.90144      7.05102        -0.342852     -0.508793      1.029540
O      11.45881      5.82059     11.41103         1.159157     -0.153467      0.421572
O      11.56491      9.43451      2.59188        -1.096201      0.918365      0.689810
O      11.50266      9.59395     15.82002         0.911368      0.115780      0.039314
O      11.54407      9.62955      7.08313        -0.244535     -0.161845     -0.080516
O      11.48366      9.66210     11.37661         0.255987      0.094709     -0.412480
O       2.00671      3.79841      2.80079        -0.603902     -0.013743     -0.832242
O       1.75920      3.91132     15.76059         0.737970     -1.308691      0.777519
O       1.89709     15.32416      2.70261         0.138698      1.371563      0.181510
O       2.05330     15.34265     15.70850        -0.608319      0.886372      0.485314
O      13.41626      3.86722      2.63589        -0.216576     -1.113015      0.241854
O      13.35116      3.76478     15.81287         0.363766      0.795764      0.189760
O      13.59695     15.32718      2.58905        -0.292974      0.190821      0.868081
O      13.44246     15.25597     15.83760        -0.072463      0.489900     -0.007846
O       1.92947      3.86288      6.93710        -0.069550     -1.021410      0.644897
O       1.97131      0.02865      7.09418        -0.105462     -0.093144     -0.235280
O      13.50057      3.87406      7.13506        -0.204904     -0.635543      0.046132
O      13.41125      0.04571      6.98378        -0.035808     -0.333721      0.333228
O       1.84807      3.80813     11.45390         0.053903      0.544345     -0.134526
O       2.04958      0.02348     11.44238        -0.367133      0.318294      0.474583
O      13.36045      3.80127     11.40790         0.387155      0.763964      0.131605
O      13.54519      0.00499     11.36294        -1.010334      0.660432      0.472524
O       1.96492      7.58965      2.77214        -0.331666      1.409789      0.236016
O       1.94368      7.69381     15.81372        -0.461603     -0.903870     -0.249083
O      13.51728      7.67086      2.67685        -0.169966     -1.077595      0.766547
O      13.46356      7.70313     15.67388        -0.127740     -0.667735      0.465273
O       1.98207      7.70013      7.09054        -0.508815     -0.491998      0.013758
O      13.59039      7.70162      7.03300        -0.486729      0.016648      0.539513
O       2.01064      7.63972     11.34906        -0.096651      0.454281      0.319450
O      13.38240      7.74716     11.31209         0.030731     -0.032045      0.103896
O       1.90764     11.55352      2.74370         0.217735     -0.589310     -0.347508
O       2.05208     11.45696     15.87713        -0.508433     -0.548696     -0.457212
O      13.28643     11.49307      2.52234         0.668535      0.127129      1.207168
O      13.54348     11.49732     15.68730        -0.217389     -0.313524      0.426896
O       1.94653     11.52894      7.06407        -0.293813     -0.087681      0.338989
O      13.47188     11.57331      7.01763        -0.029218     -0.071544      0.179060
O       1.83747     11.50546     11.54749        -0.237306      1.289418     -0.159659
O      13.53245     11.55099     11.47236        -0.317786     -0.383993      0.072288
O       5.78096      3.87648      2.72044        -0.085663     -0.636903      0.178678
O       5.82933      3.85669     15.80513        -0.544859     -0.072902      0.221252
O       5.80089      0.00686      2.59384        -0.093727      0.867155      0.489075
O       5.68087     15.30659     15.77256        -0.043215      1.062404      0.097114
O       5.83948      3.84043      7.16185        -0.459112     -0.459049     -0.368224
O       5.85562     15.27407      7.05953        -0.445426      0.924871      0.007132
O       5.89601      3.80223     11.59750        -0.514684     -0.113529     -0.912409
O       5.72760     15.34868     11.52545         0.044174     -0.645693      0.230361
O       5.80816      7.57781      2.81163        -0.254335      0.750800     -0.027561
O       5.92485      7.63710     15.66936        -0.290565     -0.360442      0.577081
O       5.67606      7.71015      7.11836        -0.062719      0.309132     -0.029345
O       5.59386      7.70856     11.35009        -0.024203     -0.630828      0.380116
O       5.72583     11.52457      2.52461         0.143971      0.435941      0.409857
O       5.75500     11.47098     15.93321         0.463660     -0.289881      0.171144
O       5.78622     11.54122      7.11225        -0.623421      0.018560     -0.404950
O       5.79836     11.47835     11.38260        -0.226193      0.903325      0.510131
O       9.66144      3.76396      2.73017         0.271657      1.379245      0.314837
O       9.60579      3.92092     15.62647         0.494188     -0.717898      0.407492
O       9.47502      0.06092      2.64593         0.745829     -1.175631      0.236544
O       9.67937     15.27904     15.63320         0.052866      0.135466      0.909733
O       9.64701      3.85575      6.99446        -0.472838     -0.538566      0.465605
O       9.71597     15.33087      7.07839        -0.505984     -0.102681     -0.020308
O       9.61640      3.78550     11.53263        -0.105294      0.321268      0.042268
O       9.49921      0.02188     11.36910         0.839956     -1.422549      0.320558
O       9.71273      7.72437      2.69322        -1.025372     -0.980651      0.043109
O       9.62628      7.64840     15.89250         0.059982      0.101494     -0.372751
O       9.60742      7.74752      6.85929        -0.100191     -0.298290      0.815152
O       9.48475      7.67837     11.36591         0.873681      1.214606      0.073421
O       9.64146     11.54223      2.60938         0.070142      0.319528      0.532405
O       9.59908     11.45689     15.84337        -0.292549     -0.139450      0.229034
O       9.69307     11.48248      6.97049        -0.131089      0.429103      0.070225
O       9.54039     11.52847     11.45977         0.654883     -0.606956     -0.136147
