  # total energy = -7878.11209963 
CRSYTAL
PRIMVEC
    15.2000000000000000    0.0000000000000000    0.0000000000000000
     0.0000000000000000   15.2000000000000000    0.0000000000000000
     0.0000000000000000    0.0000000000000000    17.000000000000000
PRESSURE
7.75306 7.77836 1.58209 0.29364 -0.092794 0.132163
PRIMCOORD
320 1
Pb       3.69858      3.88003      4.23406         0.397789     -0.275454      0.437717
Pb       3.90258      3.93435      0.02545        -0.491961     -0.341505     -0.051423
Pb       3.68436      0.13389      4.36485         0.099118     -0.632218      0.029297
Pb       3.94197     15.16411      0.03448        -0.418107      0.281961     -0.102407
Pb       0.00100      4.10244      4.30536        -0.086727     -1.308771      0.006426
Pb      15.13337      3.69854      0.02550         0.649603      0.066229     -0.112780
Pb       0.08054      0.17978      4.21416        -0.253158     -0.370585      0.803735
Pb      15.19594     15.12860     16.94401        -0.023513      0.538418     -0.100740
Pb       4.07226      3.57468      8.46197        -0.865362      1.094924      0.469210
Pb       3.80385     15.07840      8.62416        -0.203236      0.171689     -0.577606
Pb      15.19885      3.76579      8.45337         0.546083      0.329202      0.441321
Pb      15.19769     15.09075      8.67933         0.078808     -0.017788     -0.494065
Pb       3.75800      3.82207     12.76456        -0.261212     -0.368738     -0.146377
Pb       3.71237     15.12856     12.80588         0.208026      0.512638     -0.187978
Pb       0.05407      3.64525     12.73004        -0.039022      0.476402      0.120096
Pb       0.01087     15.19490     12.78660         0.047442      0.252999     -0.195270
Pb       3.76156      7.50661      4.25730         0.208513      0.115861     -0.223201
Pb       3.90619      7.62543      0.21128        -0.433088     -0.437097     -0.861807
Pb      15.16209      7.56804      4.10807        -0.490488      1.106301      0.770196
Pb       0.05398      7.55584     16.87457        -0.128356      0.386071      0.840886
Pb       3.81970      7.59874      8.38938        -0.221374     -0.360727      0.512414
Pb      15.06242      7.48765      8.41894         0.397432      0.369600      0.548842
Pb       3.68003      7.51044     12.67662         0.401554      0.158773      0.767814
Pb      15.10746      7.51655     12.64123         0.297704     -0.072344      0.373027
Pb       3.57433     11.46672      4.27171         0.306061      0.054244      0.253317
Pb       3.93553     11.35874      0.21180        -0.286919     -0.167017     -0.804464
Pb      15.03511     11.48882      4.24266         0.180606     -0.339899      0.124541
Pb       0.05360     11.44637      0.00822        -0.195756     -0.503813      0.078874
Pb       3.86915     11.40379      8.48998        -0.573771     -0.071657     -0.152037
Pb      15.03880     11.26767      8.56923         0.744334      0.515090      0.007264
Pb       3.59232     11.21272     12.90741         0.706356      0.496224     -0.542081
Pb      15.11699     11.26374     12.68525         0.154754      0.182193     -0.146508
Pb       7.45532      3.64003      4.11732         0.426854      0.659195      0.267517
Pb       7.59159      3.82466     16.98616         0.072088     -0.421004     -0.122836
Pb       7.52604     15.15546      4.31211         0.042518     -0.156760     -0.408540
Pb       7.61060     15.08263      0.04891         0.236368      0.414442     -0.074578
Pb       7.77561      3.78932      8.28954        -0.794287      0.069573      0.885349
Pb       7.58235     15.12610      8.39266        -0.117521      0.165321      0.094429
Pb       7.46702      3.78823     12.71943         0.822886      0.049467      0.223861
Pb       7.64593      0.18089     12.68164        -0.160865     -1.008089      0.120986
Pb       7.69842      7.46582      4.40464        -0.400471      0.274850     -0.930585
Pb       7.46763      7.66645     16.91847         0.343611     -0.294479      0.469367
Pb       7.63545      7.64413      8.41881        -0.298824     -0.619635      0.915231
Pb       7.57254      7.62072     12.81068         0.086718     -0.075834     -0.387686
Pb       7.52268     11.19152      4.19090         0.067599      0.688923      0.272365
Pb       7.77452     11.45745     16.96005        -0.663665     -0.096382      0.195632
Pb       7.49679     11.46990      8.38104         0.023483     -0.027492      0.413519
Pb       7.50466     11.27588     12.69396        -0.050435      0.544701     -0.117927
Pb      11.38621      3.79918      4.12075         0.010931     -0.009363      0.238410
Pb      11.43020      3.76226      0.03245        -0.317058     -0.223708     -0.102510
Pb      11.44642     15.15730      4.26965        -0.651368     -0.270345      0.189455
Pb      11.42322     15.00676     16.93341        -0.467951      0.518036      0.187859
Pb      11.43025      3.72239      8.44843         0.101523      0.258753      0.367991
Pb      11.32019      0.00957      8.43166        -0.185117     -0.533451      0.069306
Pb      11.34280      3.78233     12.78933         0.074939      0.120364     -0.417965
Pb      11.41303      0.06372     12.74337        -0.556186     -0.322364     -0.178022
Pb      11.49082      7.60095      4.13181         0.108415      0.307847      0.427031
Pb      11.25540      7.48290     16.89844         0.543112      0.889880      0.203747
Pb      11.33797      7.55753      8.33675         0.670600      0.273334      1.211789
Pb      11.27949      7.50376     12.58723         0.373276      0.477308      0.607604
Pb      11.42249     11.27951      4.23868        -0.364329      0.569548      0.451606
Pb      11.44261     11.48559     16.88915        -0.629232     -0.439957      0.326851
Pb      11.42321     11.44510      8.62949        -0.427716      0.032443     -0.384343
Pb      11.35749     11.31684     12.75944        -0.165155      0.351883     -0.526334
Ti       1.95894      1.95289      2.32499        -0.805341      0.428845     -1.538608
Ti       1.94355      1.87164     15.14925        -0.170165      0.534070     -0.787857
Ti       1.86779     13.38311      2.17537         0.149577     -0.798597      0.126936
Ti       1.90684     13.26986     14.96366        -0.164017      0.296138      0.940507
Ti      13.31184      1.88232      2.29821        -0.011485      1.142781     -0.524583
Ti      13.24852      1.93609     15.00477         0.675168     -0.710866     -0.922394
Ti      13.31188     13.38102      2.25004        -1.370490     -0.750227      0.759503
Ti      13.27944     13.25482     14.91538        -0.446894      0.466240     -0.648082
Ti       1.88886      1.90717      6.61599        -0.211352     -0.206712     -0.936139
Ti       1.80159     13.24717      6.61120         0.083412      0.680486     -0.841199
Ti      13.27734      1.85245      6.55130         0.659297      0.706612     -0.997782
Ti      13.25841     13.39145      6.46850        -0.516267     -0.675201     -0.873598
Ti       1.88510      1.92850     10.64996         0.237575     -0.505707     -0.084152
Ti       1.87232     13.24408     10.80502        -0.420790     -0.171795     -0.515384
Ti      13.25531      1.87035     10.62843         0.167497      0.547589     -0.692133
Ti      13.24208     13.39792     10.81916        -0.744559     -1.624392      0.411369
Ti       1.87195      5.73782      2.24878         1.013373     -0.429680     -1.888776
Ti       1.90630      5.66680     14.96395         0.696411     -0.189809      0.375677
Ti      13.29356      5.74768      2.13970        -0.107605     -0.206879     -0.639072
Ti      13.36705      5.73577     14.99255        -0.228990     -0.272217     -0.560168
Ti       1.95540      5.72691      6.51854         0.142249     -0.797460     -0.027730
Ti      13.29073      5.65748      6.48300         0.890084      0.302620     -0.142133
Ti       1.98729      5.72279     10.60296        -1.567914     -0.979957     -0.189390
Ti      13.36314      5.63216     10.70290        -0.018971      0.421696     -0.497840
Ti       1.79844      9.57044      2.39182        -0.423665      0.232594     -0.842746
Ti       1.90477      9.47866     15.05220        -0.795634     -0.506357     -0.016980
Ti      13.19878      9.60297      2.10316         1.087640     -0.578934      0.928273
Ti      13.26328      9.49879     14.96137        -0.044632     -0.656259     -0.123772
Ti       1.78516      9.46920      6.44998         0.395006      0.646416      1.382405
Ti      13.22360      9.59825      6.54192        -0.394119     -1.068545     -1.531172
Ti       1.90718      9.44781     10.65242        -1.237367     -0.125676     -0.596385
Ti      13.30345      9.48890     10.75272        -0.823639      0.002844     -0.610361
Ti       5.69084      1.81417      2.27779        -0.110174      1.305167     -0.502042
Ti       5.72297      1.87511     15.02137         0.497081      0.174595     -0.334134
Ti       5.65807     13.28411      2.29764         0.348448      0.313617      0.451198
Ti       5.65265     13.31935     14.94803         0.136091     -1.074423     -1.159184
Ti       5.67021      1.84429      6.43874         0.290483     -0.264541     -1.087663
Ti       5.53369     13.27045      6.36738         1.282196     -0.113268      0.348515
Ti       5.69811      1.93869     10.76489         0.021002     -1.035761     -0.240079
Ti       5.60689     13.36897     10.75468         0.958751     -1.047122     -0.081173
Ti       5.66502      5.68616      2.23351         0.338831      0.280679     -0.823740
Ti       5.73739      5.66170     14.84553        -0.835141      0.592275      0.962674
Ti       5.76409      5.66257      6.49451        -0.467864     -0.561424     -0.625862
Ti       5.76946      5.71356     10.76231        -0.534507      0.304823     -0.785529
Ti       5.62949      9.46633      2.32622         0.456675     -0.333682     -0.204192
Ti       5.63799      9.48524     14.98436        -0.089588      0.776373     -0.133507
Ti       5.60809      9.39571      6.47094        -0.031281      1.039372     -0.776688
Ti       5.60900      9.49370     10.69544         0.590673      0.012521      0.591634
Ti       9.56306      1.86168      2.24019        -0.744613     -0.450961     -1.285366
Ti       9.50247      1.91575     14.98724        -0.480430     -0.556299      0.117051
Ti       9.44161     13.23898      2.30697         0.375327     -0.120159     -0.426478
Ti       9.37111     13.40589     14.80785         0.888580     -1.360509     -0.617244
Ti       9.47248      1.90044      6.35948         0.198241     -1.027234      0.470867
Ti       9.37208     13.24696      6.34819         1.258644      0.453959      0.018803
Ti       9.49073      1.91146     10.65010        -0.460447     -0.221941      0.854199
Ti       9.38346     13.23051     10.72666         0.187195      0.633928      1.155827
Ti       9.46953      5.74597      2.21629        -0.420244     -0.914373     -0.372462
Ti       9.46865      5.70183     15.00529         0.422191     -0.204500     -1.439502
Ti       9.58108      5.67649      6.37545        -0.356188      0.396797      0.229709
Ti       9.53118      5.63856     10.69103        -0.337315      0.075457      0.419337
Ti       9.44106      9.41134      2.27356         0.190130      1.371457     -0.393003
Ti       9.40930      9.52687     14.98191         0.762873     -0.093914     -1.018259
Ti       9.41730      9.50178      6.52859         0.856653      0.279837      0.501033
Ti       9.48928      9.48240     10.65376        -0.164087      0.236106      0.620970
O       1.84923      1.99660      0.51857         0.272218     -0.568042      0.186466
O       1.96785      1.91050     13.33959        -0.333466      0.023749     -0.038367
O       1.84750     13.30453      0.34958         0.241924      0.316328      1.513684
O       1.81706     13.26636     13.16866         0.152100      0.029503      0.262598
O      13.26373      2.01689      0.48557        -0.228024     -0.266895      0.103269
O      13.29263      1.79206     13.17490         0.059059      0.664372      0.542569
O      13.24859     13.31225      0.48573        -0.175309      0.026598     -0.509934
O      13.16700     13.36739     13.10847         0.738707     -0.204401      0.719308
O       2.02380      1.85561      4.73585        -0.810165     -0.041275      0.704055
O       1.83568     13.45531      4.79392        -0.253884     -0.637215      0.925814
O      13.20098      1.83376      4.70772        -0.014890      0.380655      0.691427
O      13.26887     13.40549      4.63776         0.198351     -0.043838      0.956110
O       1.89591      1.92846      8.84907         0.132160     -0.262698      0.551132
O       1.89073     13.23950      8.98903         0.322765      0.167901      0.656026
O      13.30316      1.73191      8.77015        -0.084295      0.414293      1.944817
O      13.21553     13.36282      9.05874        -0.139804     -0.015690     -1.385845
O       1.89241      5.77774      0.42511         0.205637     -0.324932      1.205585
O       1.97946      5.66686     13.16955        -0.339684     -0.371850      0.406235
O      13.39914      5.74744      0.32810        -0.352516     -0.281089      1.220660
O      13.56421      5.49123     13.21605        -0.856349      0.690433     -0.150038
O       2.00168      5.67235      4.64993        -0.636510      0.323912      0.794424
O      13.39385      5.69784      4.67619        -0.530309     -0.058284      0.281207
O       1.81050      5.82334      8.81976         0.578449     -0.598550      0.570982
O      13.45234      5.74220      8.89395        -0.643176     -0.397630      0.660651
O       1.75704      9.76761      0.63868         0.560104     -0.642509     -0.757471
O       1.82360      9.51009     13.23979         0.108304     -0.004015      1.317442
O      13.14178      9.66806      0.35949         0.319331     -0.333042      0.630175
O      13.36312      9.44583     13.12412        -0.127223      0.516725      0.722389
O       1.71607      9.51964      4.67039         0.643527     -0.049926      0.299405
O      13.27507      9.55302      4.67106        -0.331059     -0.055640      2.030111
O       1.81116      9.50592      8.87190         0.359758     -0.160162      0.938656
O      13.22052      9.51305      8.91103         0.190724      0.314832      0.182490
O       5.67345      1.88519      0.47372         0.194159     -0.160646      0.107739
O       5.75578      1.92993     13.18369        -0.148060     -0.073564      0.771147
O       5.68605     13.42331      0.47328        -0.251553     -0.271208      0.450948
O       5.59774     13.30043     13.13664         0.091221     -0.084428      1.267867
O       5.71681      1.86831      4.60270        -0.227110      0.327889      1.218995
O       5.66258     13.36340      4.61301        -0.186047     -0.487906     -0.244101
O       5.70160      1.81761      8.96046        -0.105288      0.232903     -0.168279
O       5.61141     13.28831      8.88145        -0.052542      0.423628      0.835066
O       5.53690      5.71344      0.38389         0.740331      0.280923      0.894465
O       5.67943      5.62488     13.05328        -0.048901     -0.084297      0.637508
O       5.73498      5.60687      4.68737         0.081036      0.613688      0.392397
O       5.78192      5.64517      8.94886        -0.317560      0.174023      0.417411
O       5.62755      9.40465      0.50326         0.040320      0.309246      0.500277
O       5.63209      9.58143     13.21280        -0.159764      0.018427     -0.174061
O       5.50440      9.35276      4.66854         0.619623      0.160803      0.341424
O       5.66210      9.28915      8.89400        -0.152340      0.719202      1.211894
O       9.72563      1.94943      0.39603        -0.650913     -0.212776      1.076503
O       9.47835      1.77820     13.18348         0.015051      0.523422      0.381979
O       9.41639     13.10366      0.43918         0.071092      0.837326      0.765226
O       9.36216     13.37938     13.01857         0.317243     -0.039704      1.002533
O       9.55947      1.86940      4.60542        -0.176474     -0.152893     -0.065850
O       9.36780     13.38490      4.54780         0.022221     -0.581305      1.082497
O       9.45078      2.05861      8.88402         0.189067     -0.250202     -0.284100
O       9.35313     13.15599      8.95914         0.170273      0.297347     -0.666531
O       9.53450      5.78157      0.41881        -0.339560     -0.537054      0.287628
O       9.49711      5.80930     13.16891         0.030476     -0.293700      0.873610
O       9.59411      5.84953      4.60084        -0.343555     -0.252516      0.239249
O       9.60166      5.58974      8.90554        -0.274862     -0.310310      0.384451
O       9.43284      9.45035      0.51816        -0.042259      0.202956     -0.911835
O       9.40296      9.43602     13.15061         0.376209     -0.063309      1.399214
O       9.52854      9.43036      4.78169        -0.395636     -0.212664     -0.803008
O       9.44090      9.62797      8.88532        -0.037231     -0.314536      0.125552
O       3.78858      1.92441      2.73321        -0.076190     -0.038805     -0.576315
O       3.87777      1.96598     15.43264        -0.584914     -0.248741     -0.173717
O       3.73088     13.19819      2.71127        -0.095057      0.541865     -1.014166
O       3.78441     13.47155     15.36593        -0.447969     -0.673521     -0.353129
O      15.15157      1.96612      2.57162         0.310494     -0.513616      0.374745
O      15.17733      1.86839     15.37710        -0.239573      0.266406      0.149933
O      15.14004     13.44015      2.50428         0.139409     -0.048228      0.189445
O      15.11504     13.37424     15.35217         0.764560     -0.403032     -0.372363
O       3.80154      1.84336      6.89069         0.876773     -0.159223     -0.020238
O       3.75877     13.18515      6.83728        -0.421109      0.633365      0.138821
O       0.02669      1.95633      6.82084        -0.160009     -0.483718     -0.176195
O      15.13532     13.29372      7.00972        -0.341038     -0.226835     -0.289041
O       3.78078      1.84625     11.11694        -0.087338      0.301149     -0.337770
O       3.73023     13.36330     11.22279         0.110416     -0.191943     -0.658446
O      15.11258      1.96242     11.03810         0.839993     -0.307591     -0.075372
O      15.14735     13.31560     11.01509         0.827410     -0.264585      0.503161
O       3.78056      5.62810      2.62632        -0.696574      0.563562     -0.042515
O       3.89864      5.63692     15.37794        -0.670477      0.122827     -0.779342
O       0.03492      5.73537      2.64117        -1.384264     -0.305035     -0.388473
O       0.05059      5.84621     15.33309        -0.435905     -0.901795     -0.183192
O       3.87396      5.69175      6.74620        -0.482817      0.245541      0.309690
O       0.04049      5.71129      6.77726        -0.405189     -0.362825     -0.289710
O       3.74708      5.62933     11.13973         1.278755     -0.128970     -0.516832
O       0.03690      5.75390     11.02822        -0.474061     -0.372207      0.024643
O       3.70840      9.68050      2.56959         0.458643     -0.374090      0.233666
O       3.78905      9.48647     15.49392        -0.912491      0.254073     -0.238254
O      15.13516      9.58030      2.65471        -1.244109     -0.001416     -0.237292
O      15.13952      9.51113     15.49731         1.444986      0.330607     -0.700059
O       3.78500      9.48767      6.87865        -0.879710     -0.494893     -0.272479
O      15.11859      9.59549      6.83240        -0.010890     -0.411608     -0.057125
O       3.66313      9.50425     11.24797         2.173681     -0.421547     -0.730738
O       0.00523      9.43761     11.04325         0.111678      0.206118      0.069765
O       7.55102      1.83434      2.68035         0.774513      0.182713     -0.642217
O       7.66677      1.81098     15.49581        -0.949873      0.126293     -0.220604
O       7.49467     13.35945      2.63458         0.090664      0.081007     -0.179855
O       7.56459     13.38067     15.29891        -0.426444     -0.052726      0.214105
O       7.57211      1.83405      6.78222         0.549096      0.466486     -0.167424
O       7.56945     13.26460      6.82242        -0.716698      0.256194     -0.197894
O       7.62650      1.89129     11.08633        -0.626140      0.330527     -0.137862
O       7.47896     13.15911     11.11694         0.611281      0.510481     -0.513390
O       7.53832      5.82515      2.50954         0.871805     -0.124765      0.303902
O       7.60281      5.76330     15.21944        -0.655757     -0.366290      0.447084
O       7.68277      5.74687      6.86722         0.005697     -0.128602     -0.673484
O       7.58113      5.69638     11.09919         0.773932      0.287457     -0.114722
O       7.57265      9.32561      2.67560        -1.315488     -0.236276      0.338049
O       7.53791      9.53046     15.29288         0.518140     -0.156637      0.324450
O       7.51199      9.35470      6.85334         0.263727      0.534510     -0.503622
O       7.57857      9.37485     11.20520        -0.503345      0.704721     -1.066929
O      11.35097      2.02858      2.57413         0.786566     -0.149653      0.325461
O      11.37741      2.03281     15.17500         0.196581     -0.255221      0.534869
O      11.30667     13.22742      2.59091         0.144076     -0.180345     -0.032724
O      11.37234     13.22448     15.26568        -0.068072      0.246225     -0.001274
O      11.39492      1.87245      6.96592        -0.562311      0.246304     -0.880686
O      11.32397     13.42026      6.72199         0.204395     -0.295439      0.359134
O      11.34003      1.94103     11.05178         0.947899     -0.232183     -0.073952
O      11.31469     13.24059     11.11601         0.600307      0.541708     -0.196630
O      11.39657      5.75001      2.44213         0.366075     -0.164081      0.257730
O      11.40400      5.85227     15.21263         0.171781     -0.660404      0.118052
O      11.43422      5.61189      6.84305        -0.617282     -0.195804     -0.247274
O      11.42713      5.66021     11.14567        -0.244933     -0.207170     -0.230906
O      11.39291      9.53648      2.72071        -0.808489     -0.226897     -0.766743
O      11.34601      9.50366     15.38914        -0.524654      0.031440     -0.675116
O      11.32995      9.55500      6.92967         0.263256     -0.222602     -0.217082
O      11.39520      9.56244     11.10597        -0.446400     -0.306429     -0.194246
O       1.88523      3.82630      2.57409        -0.192544      0.020967      0.423007
O       1.82840      3.81390     15.37568         0.126320     -0.160725      0.044431
O       1.83383      0.01754      2.70096         0.619459      0.158929     -0.695364
O       1.81379     15.18517     15.34282         0.335762     -0.006706      0.144257
O      13.26257      3.85881      2.70057         0.276750      0.304670     -0.694808
O      13.27476      3.83130     15.35433         0.302892      0.001885      0.088826
O      13.00826      0.05082      2.59524         1.023084     -0.387915     -0.589610
O      13.21987      0.00543     15.33809        -0.158824     -0.205959      0.167172
O       2.00473      3.82403      6.79456        -0.306039     -0.146763      0.182305
O       1.97979     15.13845      6.99033        -0.445963      0.512879     -0.047208
O      13.38514      3.76049      7.05382        -0.795268      0.377087     -1.263994
O      13.34108      0.01275      6.81994        -0.111465     -0.295000      0.225996
O       1.81896      3.74956     10.97957         0.412270      0.682271      0.372771
O       1.83168      0.01174     11.10965        -0.109118     -0.013891     -0.107756
O      13.20645      3.77935     10.92705         0.380545     -0.227770      0.131021
O      13.41887      0.04958     11.06102        -0.912107      0.121161      0.240952
O       1.81253      7.60416      2.61282         0.771709      0.743361     -0.028863
O       1.92774      7.53483     15.36059         0.273361      1.883931     -0.053425
O      13.29446      7.65936      2.51210         0.094815     -0.517258     -0.111626
O      13.38214      7.66186     15.31575        -0.506494     -0.735625     -0.098850
O       1.85611      7.59292      6.98347         0.258419      0.803395     -1.434333
O      13.19196      7.51161      6.82612         0.311711      1.102980     -0.263180
O       1.94376      7.50808     11.13800        -0.233479      1.349291     -0.484607
O      13.22312      7.64127     11.04643         0.328443     -1.378070      0.186689
O       1.71165     11.53765      2.75595         0.269308     -0.037689     -0.223311
O       1.88292     11.43360     15.47919         0.241861     -0.379770     -0.935257
O      13.13530     11.43520      2.73923         1.266787      0.505412     -1.061132
O      13.31227     11.35602     15.37985        -0.045688      1.365279     -0.768469
O       1.89707     11.35857      6.99775        -0.222438     -0.281619     -0.885329
O      13.14254     11.45168      6.80306         0.484400      0.164541      0.248212
O       1.92598     11.29648     11.16595        -0.599337      1.230687     -0.246359
O      13.30096     11.40282     11.09768         0.130168     -0.113479      0.073404
O       5.66153      3.86661      2.51517         0.388280     -1.536762      0.306543
O       5.84421      3.80685     15.33764        -0.061495     -0.180381     -0.119923
O       5.61700      0.04573      2.61847        -0.316003     -1.597837     -0.168737
O       5.69122      0.00377     15.32579         0.023979      0.260194      0.262760
O       5.72881      3.72320      6.79684         0.159073      0.560520      0.149095
O       5.77006     15.15247      6.64982        -0.535274      0.170454      0.702603
O       5.73759      3.78318     11.06611        -0.403451      0.263826      0.016313
O       5.74228      0.01255     11.07213        -0.309939      0.026525     -0.008176
O       5.49591      7.54375      2.53994        -0.285119      1.247783      0.380757
O       5.76584      7.63706     15.27980        -0.561056     -1.035920     -0.119611
O       5.67670      7.51833      6.89441         0.136580      0.350327     -0.474749
O       5.64286      7.60109     11.27323        -0.327926      0.112922     -0.968335
O       5.75609     11.37727      2.59141        -0.264264     -0.146754     -0.127403
O       5.65272     11.40590     15.43107        -0.205723      0.624563     -0.149886
O       5.58116     11.39257      6.78158         0.873703     -1.002068     -0.038444
O       5.64496     11.40955     10.96053        -0.379456     -1.505258      0.028478
O       9.43632      3.78568      2.57955        -0.181212      0.907921     -0.076194
O       9.39313      3.77514     15.36959         0.422180      1.047363     -0.219273
O       9.48855     15.12577      2.48034        -0.029987      1.195138     -0.078018
O       9.54232     15.16262     15.30358         0.300779      0.792882      0.344524
O       9.49153      3.79597      6.57884        -0.002084      0.011093      0.503010
O       9.46375      0.03063      6.84663        -0.211811     -0.491584     -0.163892
O       9.40062      3.80657     11.27717         0.648874     -0.092704     -0.822487
O       9.46997      0.01639     11.02953        -0.102998     -0.064630     -0.540656
O       9.50015      7.61353      2.61941         0.349936     -1.209125      0.328947
O       9.38513      7.54724     15.46996         0.224850      1.530342     -0.586955
O       9.54587      7.58044      6.93686        -0.284931     -0.344473     -0.814781
O       9.54820      7.57831     10.96541        -0.053735     -0.156354     -0.048815
O       9.16939     11.29482      2.57777         0.964304      0.740047      0.264819
O       9.36328     11.47725     15.19879         0.381716     -1.184564      0.087147
O       9.35906     11.38796      6.78761         0.267543      0.235844     -0.260422
O       9.57593     11.37189     11.11835        -0.868622     -0.575053     -0.049358
