  # total energy = -7865.88437329 
CRSYTAL
PRIMVEC
    15.010000000000000    0.0000000000000000    0.0000000000000000
     0.0000000000000000   15.010000000000000    0.0000000000000000
     0.0000000000000000    0.0000000000000000    16.400000000000000
PRESSURE
17.7161 17.5121 8.26865 -0.089312 0.218316 -0.017554
PRIMCOORD
320 1
Pb       3.58905      3.76302      4.02120         0.928641     -0.570845      0.406181
Pb       3.85675      3.67773      0.03797        -0.767209     -0.154572     -0.553264
Pb       3.72827     14.97568      4.09470         0.367746      0.041978      0.086780
Pb       3.64784      0.00531      0.00657         0.392533      0.133377      0.027969
Pb       0.01103      3.70906      4.12084        -0.023998      0.336911     -0.040416
Pb       0.03360      3.84326      0.08820         0.133829     -0.317154     -0.849644
Pb       0.06244     14.95037      4.03786        -0.706567      0.337827      0.800738
Pb      14.93896      0.02032     16.35772         0.318537     -0.189521     -0.108185
Pb       3.91928      3.68626      8.22753        -0.017972     -0.035598     -0.797326
Pb       3.81857     14.94657      8.32489         0.097721     -0.347938     -0.664507
Pb       0.10743      3.66481      8.13727        -0.769405      0.306603      0.373734
Pb       0.13122      0.06311      8.30992        -0.357415     -0.608683     -0.713193
Pb       3.78609      3.79213     12.35240        -0.166518     -0.096054     -0.047744
Pb       3.82290      0.05080     12.25993        -0.442962     -0.438312      0.407405
Pb      14.96914      3.65604     12.28708         0.406108      0.668852     -0.285795
Pb      14.90978     15.00153     12.29725         0.685869     -0.137210      0.377492
Pb       3.59052      7.57330      4.06121         0.360505      0.139497      0.245903
Pb       3.72461      7.45344     16.39425         0.094127      0.147889     -0.397652
Pb      14.87556      7.42989      4.09554        -0.042671      0.760102      0.300239
Pb       0.01309      7.47854      0.03656        -0.305290      0.107879     -0.111692
Pb       3.66126      7.46073      8.29806         0.378654      0.364637     -0.768423
Pb      14.94469      7.43261      8.13676        -0.132394      0.367340     -0.230536
Pb       3.81294      7.48728     12.34731         0.091448     -0.217584      0.001447
Pb       0.14739      7.50143     12.34534        -0.813110     -0.273568     -0.444015
Pb       3.65541     11.30999      3.93112         0.243912     -0.235454      0.769761
Pb       3.69711     11.29055      0.08851         0.217603     -0.397487     -0.334111
Pb      14.85251     11.29857      4.14663        -0.057521     -0.404963      0.175698
Pb      14.97125     11.12706     16.35983        -0.078136      0.725709      0.356924
Pb       3.66134     11.15715      8.23893         0.433208      0.835298     -0.018424
Pb      14.89624     11.19067      8.30540         0.032678      0.142212     -0.713447
Pb       3.75359     11.23718     12.39305        -0.526311      0.122120     -0.151094
Pb      14.98748     11.19239     12.28564         0.263329      0.035892      0.237616
Pb       7.48229      3.67318      4.19312        -0.148092      0.203849     -0.208415
Pb       7.46005      3.81331      0.02670         0.413012     -0.751445     -0.235379
Pb       7.42009      0.03820      4.08932         0.124624     -0.304073     -0.001056
Pb       7.52809      0.02763      0.06322        -0.330704      0.265781     -0.318373
Pb       7.58462      3.83656      8.31323        -0.084875     -0.540052     -0.628300
Pb       7.46222     14.76739      8.34347         0.161696      0.633703     -0.222586
Pb       7.57825      3.61023     12.31096         0.258241      0.162164     -0.083955
Pb       7.49966      0.01112     12.30753         0.053528     -0.041707      0.002563
Pb       7.42430      7.51587      4.11484        -0.165446     -0.380270     -0.123394
Pb       7.45390      7.50687      0.14061         0.309034     -0.109283     -1.042922
Pb       7.48343      7.57601      8.19303         0.030452      0.205999      0.253054
Pb       7.52317      7.32355     12.30387         0.347627      0.859183      0.108660
Pb       7.29517     11.31051      4.10206         0.252465      0.282861     -0.387180
Pb       7.49257     11.24988      0.10286         0.001444      0.036373     -0.329334
Pb       7.42207     11.16349      8.35778        -0.044305      0.107368     -0.573637
Pb       7.50987     11.16751     12.47861         0.408139      0.108118     -0.389003
Pb      11.40663      3.70628      4.12034        -0.527929      0.140290      0.172577
Pb      11.16771      3.76616      0.02658         0.693446     -0.404421     -0.742078
Pb      11.24426      0.04051      4.15683         0.561779     -0.397263     -0.263972
Pb      11.15458     14.98890      0.01665         0.573758     -0.081556     -0.670012
Pb      11.27026      3.77537      8.19996         0.191030     -0.086524     -0.504999
Pb      11.33375     14.95167      8.24186        -0.667461      0.230245     -0.331966
Pb      11.32354      3.74124     12.35499         0.203072      0.396758      0.157412
Pb      11.24884     14.92174     12.22585        -0.132673      0.249544      0.984839
Pb      11.00196      7.42322      4.10813         1.692607     -0.101207      0.689790
Pb      11.19749      7.50360      0.00031         0.388533     -0.256675     -0.369447
Pb      11.17027      7.50851      8.24795         0.451474      0.436524     -0.483947
Pb      11.25926      7.50149     12.40701        -0.058238      0.177712     -0.651148
Pb      11.13958     11.33591      4.21467         1.085751     -0.126062     -0.414912
Pb      11.13227     11.33105      0.09488         0.803341     -0.162266     -0.551810
Pb      11.14420     11.17874      8.19140         0.057331     -0.164289      0.178545
Pb      11.27033     11.26788     12.34949        -0.318803     -0.727854      0.094643
Ti       1.85628      1.80440      2.10971         1.153660      0.311091     -1.040996
Ti       1.90360      1.86854     14.37086        -0.122453     -0.301817      0.500523
Ti       1.75540     13.10862      2.03965         0.931455      0.654796     -0.049741
Ti       1.85481     13.12058     14.43837         0.457971      0.413995     -1.152652
Ti      13.18569      1.89725      1.96381        -0.624484     -1.461039     -0.161693
Ti      13.17215      1.87009     14.36390        -1.288840      0.687466      2.247405
Ti      13.11478     13.18215      2.06452        -0.769142     -0.402361      0.706437
Ti      13.13732     13.11794     14.30743        -0.926029     -0.335923      2.284240
Ti       1.88770      1.83645      6.20132         1.281734     -0.105875     -0.358025
Ti       1.76873     13.13548      6.28145         0.713328      0.020305      0.832631
Ti      13.15042      1.82756      6.20381         0.207922     -0.285797      0.457709
Ti      13.06806     13.17673      6.26379         0.327986     -1.549965     -1.001554
Ti       1.94284      1.88130     10.22337         0.036442      0.248432      0.636785
Ti       1.86554     13.14766     10.37500         0.305950     -0.928106     -0.628944
Ti      13.15811      1.89445     10.28588         0.980880      0.106588     -1.475362
Ti      13.14172     13.12382     10.27571        -1.114098     -0.705154     -0.311213
Ti       1.87132      5.65944      2.11232        -0.878235     -0.643696     -0.923350
Ti       1.85830      5.61686     14.31028         0.575112     -1.088775      0.437563
Ti      13.10680      5.60617      2.07733         0.524179      1.115548      0.191931
Ti      13.18507      5.64352     14.30876        -1.469591     -0.707615      0.774576
Ti       1.85623      5.59354      6.21333         0.768233      0.980980     -0.146409
Ti      13.14858      5.53245      6.21804        -0.802748      1.332509     -0.308483
Ti       1.98427      5.61881     10.23592        -1.256036     -0.348878      1.931136
Ti      13.23306      5.67111     10.24693        -0.379359     -0.288257      0.750003
Ti       1.85911      9.41435      2.04584        -0.366209     -0.676199      0.323173
Ti       1.96130      9.35764     14.36282        -0.481617      0.694615     -0.091201
Ti      13.09609      9.38982      2.08719         1.197673      0.168441      1.179625
Ti      13.13449      9.39685     14.44035        -0.262445     -0.794531     -0.597737
Ti       1.85436      9.38362      6.26345        -1.211643     -0.045278     -1.146131
Ti      13.10572      9.35011      6.15969        -0.205257      0.137037      0.042975
Ti       1.80246      9.34506     10.28802         0.162438      0.824196      0.313603
Ti      13.10422      9.38251     10.36750        -0.948361     -0.797705      0.627211
Ti       5.64851      1.91664      2.04973        -0.236102     -1.520581      0.206670
Ti       5.63139      1.82768     14.31898        -0.234551      0.294842      0.977092
Ti       5.56983     13.19276      1.93786         1.093638      0.136965      0.401191
Ti       5.62010     13.13096     14.40472        -0.066778      0.752663      0.341435
Ti       5.74792      1.87546      6.24730        -1.601212      0.278965      0.141664
Ti       5.55535     13.13102      6.23741        -0.159314     -0.282795     -0.010365
Ti       5.72151      1.97094     10.26582         0.186052     -2.317367     -0.494788
Ti       5.62159     13.04872     10.46121         0.064539      1.136419     -1.283388
Ti       5.59714      5.64506      2.06287         0.062228     -0.385366      1.086481
Ti       5.68337      5.63285     14.40688        -0.512025      0.296712     -0.118059
Ti       5.59939      5.70275      6.17222         0.067420     -0.963418     -0.680197
Ti       5.71584      5.62508     10.26925         0.456924      0.913207      0.131816
Ti       5.66276      9.35646      2.06041        -1.292696      0.775315      0.838620
Ti       5.66699      9.43722     14.41559        -0.501387     -1.795753     -0.491962
Ti       5.51678      9.41324      6.15163         0.402613      0.889475     -0.938889
Ti       5.53479      9.37317     10.42565         0.335614     -0.177603     -0.412562
Ti       9.44288      1.86637      2.11297        -1.550119      0.595131     -0.526844
Ti       9.37475      1.81902     14.42068         0.499711     -0.865744     -0.768925
Ti       9.33654     13.12313      2.03074        -0.166359     -0.461908      0.689287
Ti       9.33720     13.03578     14.37084         0.691720      1.429467      0.256242
Ti       9.38735      1.81670      6.24632         0.452776     -0.054677      0.255760
Ti       9.26488     13.01518      6.16986         0.691592     -0.271054      0.257638
Ti       9.56140      1.87876     10.31143        -2.586642     -0.399003     -0.593732
Ti       9.38174     13.15362     10.36205        -0.135872     -1.088783      0.392767
Ti       9.36638      5.58222      2.08812         0.036791      0.215113      0.997269
Ti       9.40427      5.51122     14.32987        -0.200404      1.039497      0.707972
Ti       9.30925      5.61151      6.23609         1.354345     -0.231266     -0.460881
Ti       9.47962      5.60397     10.23789         0.133270      0.982239      0.889865
Ti       9.42569      9.33798      2.11512        -1.002258      1.129887     -1.021850
Ti       9.41915      9.31389     14.47531        -0.476313     -0.268582     -1.030769
Ti       9.29854      9.36054      6.10258         0.374531      0.196010      0.840565
Ti       9.29418      9.40289     10.43791         1.081939     -0.672606     -0.074697
O       1.85992      1.69606      0.29019         0.091051      0.397174     -0.173971
O       2.04674      1.76483     12.57544        -0.383276      0.778463     -0.458790
O       1.79411     13.12492      0.23593         0.148081      0.148673      0.156520
O       1.88928     13.07236     12.56196        -0.196326      0.042994      0.142719
O      13.08234      1.78043      0.13885         0.277031      0.552993      1.462451
O      13.12940      1.85708     12.61386         0.098936      0.061107     -1.823657
O      13.11026     13.16533      0.30873         0.367680     -0.167952     -0.886980
O      13.10172     13.01722     12.54276         0.250401      0.544150     -0.453095
O       1.82835      1.80172      4.34996         0.223316      0.610373     -0.201443
O       1.75266     13.10487      4.50271         0.376572      0.101218     -1.453196
O      13.06049      1.83703      4.39933         0.039995      0.350979     -0.984974
O      13.06878     13.18258      4.39410        -0.096362      0.027219      0.240810
O       1.82512      1.86990      8.38488         0.300791      0.274248      0.835799
O       1.89492     13.29609      8.51009        -0.219901     -0.650014      0.938666
O      13.18027      1.79649      8.39138        -0.111825      0.212740      1.971967
O      13.07901     12.97593      8.45857         0.015783      0.731514      0.430275
O       1.79530      5.67326      0.23719         0.007589     -0.273099      0.651984
O       1.83579      5.55727     12.48511         0.325501     -0.190028      0.925789
O      13.25072      5.61229      0.27010        -0.254802     -0.129372      0.376974
O      13.22431      5.62331     12.53395        -0.142173     -0.345760     -0.527091
O       1.76026      5.75700      4.40166         0.693240     -0.803520     -0.601515
O      13.10981      5.60896      4.37623         0.400999     -0.482960      0.252307
O       1.84189      5.56393      8.47049         0.466402      0.234044     -0.520088
O      13.07423      5.51901      8.44014         0.482490      0.366926      0.212325
O       1.87911      9.44347      0.21988        -0.100323     -0.324823     -0.161330
O       1.91270      9.43168     12.47575        -0.056083     -0.053831      2.031807
O      13.21211      9.42400      0.31065        -0.246908     -0.313348     -0.653402
O      13.08742      9.35978     12.58713         0.154070      0.064792      1.050169
O       1.94693      9.30680      4.37102        -0.457327      0.479259      0.409421
O      13.14883      9.28388      4.36004        -0.100049      0.309657      0.070181
O       1.88965      9.25303      8.47737         0.001824      0.209634     -0.001731
O      13.14210      9.46310      8.59232        -0.272986     -0.440805     -1.114248
O       5.66496      1.82971      0.23158         0.008242      0.540979      0.276379
O       5.46559      1.77855     12.49711         0.592510      0.873880     -0.051584
O       5.77692     13.13962      0.11091        -0.307651      0.001112      0.963578
O       5.66213     13.20958     12.56042        -0.179930     -0.519892     -0.251223
O       5.81456      1.81798      4.41577        -0.773609      0.017232     -0.254444
O       5.66106     13.23571      4.40365        -0.389648     -0.597194     -0.077345
O       5.74964      1.98232      8.40247        -0.137405     -0.141300      1.133312
O       5.61746     13.01401      8.53829         0.249479      0.376936      0.592019
O       5.52270      5.65377      0.22642         0.014622     -0.389686      0.453310
O       5.66019      5.66832     12.57670         0.228813     -0.352591     -0.097080
O       5.70064      5.71569      4.30179        -0.040520     -0.177782      0.862057
O       5.63784      5.60123      8.45803         0.062349      0.285755     -0.014206
O       5.64896      9.33205      0.26300         0.214329      0.054712     -0.572365
O       5.44904      9.25512     12.50361         0.737297      0.806745      1.617559
O       5.48413      9.50335      4.25244         0.290739     -0.491363      1.148552
O       5.53824      9.49418      8.59633         0.055693     -0.588183     -0.443627
O       9.28329      1.94618      0.25377         0.250144     -0.259795      0.616869
O       9.35525      1.79019     12.50588         0.489435      0.465629      0.951733
O       9.19972     13.06908      0.20319         0.220469      0.105366      0.773629
O       9.37973     13.14807     12.55385        -0.109412      0.167713      0.080050
O       9.40320      1.83143      4.38896         0.232259      0.186863      0.275787
O       9.37024     12.86570      4.33629        -0.060113      0.685862      0.007454
O       9.47447      1.72107      8.51036        -0.086252      0.344383     -0.230084
O       9.31123     13.07519      8.58951         0.230483     -0.130186     -1.395601
O       9.45938      5.46413      0.32762        -0.129651      0.835237     -1.168965
O       9.34785      5.38105     12.54378        -0.037344      0.277640     -0.260231
O       9.15469      5.75109      4.39187         0.714414     -0.376410     -0.170633
O       9.29804      5.65192      8.42491         0.738064      0.273952     -0.164555
O       9.38840      9.20771      0.19094        -0.638124      0.275121      0.978865
O       9.56196      9.32445     12.58365        -1.066964      0.448157      1.008043
O       9.41656      9.35178      4.28864        -0.301050      0.298172      0.052922
O       9.45425      9.36788      8.59454        -0.563474     -0.373190      0.145450
O       3.75607      1.95871      2.31017        -0.018965      0.300741      0.547500
O       3.75738      1.66677     14.81762        -0.017202      0.493207     -0.713294
O       3.74327     13.12853      2.23604        -0.999534     -0.930942      0.326275
O       3.75580     13.36540     14.65082        -0.324758     -0.453532      0.060710
O       0.03574      1.53717      2.16906        -1.805096      1.077381      0.628347
O      14.98763      2.08051     14.62750         0.781841     -0.008744     -0.008580
O      14.95765     13.31131      2.39310         0.862209     -0.181498     -0.174101
O      14.99225     13.01008     14.63894        -0.286495     -0.757801     -0.082895
O       3.85391      1.97620      6.48651        -1.423193     -0.062433     -0.093003
O       3.73948     13.09667      6.49087        -0.762381      0.504396      0.099536
O       0.03461      1.70244      6.41718        -1.184026      0.254910      0.154137
O      14.92795     13.30702      6.53818         0.891961     -0.042357      0.188263
O       3.80998      2.13013     10.42429        -0.333968      0.106882     -0.033361
O       3.75174     12.80987     10.50188        -0.381992      0.255074      0.388266
O       0.02601      1.63359     10.62476         0.347468      0.267627     -0.261606
O      14.92991     13.34358     10.57868         1.633576      0.225764      0.027777
O       3.70319      5.46242      2.45549         0.248615      0.185435     -0.440036
O       3.72819      5.79040     14.56677         0.240930     -0.130497      0.080587
O      14.97145      5.71649      2.51876         0.903158     -0.841424     -0.816801
O      14.95356      5.38276     14.60270         2.356716      0.041691      0.284105
O       3.73954      5.50271      6.48445        -0.188024      0.397350     -0.128770
O       0.00576      5.61496      6.47411        -0.505484      0.468845      0.335443
O       3.85801      5.47535     10.62819        -1.187563     -0.376821     -0.467339
O       0.08014      5.76204     10.58504         0.022279      0.373846     -0.410022
O       3.72519      9.58870      2.26427         0.205411     -0.189512      0.088904
O       3.78629      9.25769     14.71924        -0.638793     -0.678165     -0.173805
O       0.03022      9.34426      2.34640        -0.616428     -0.193963      0.032709
O       0.01379      9.58365     14.66442         0.512940     -0.613463     -0.477430
O       3.67384      9.37204      6.36020         0.741882     -0.221217      0.857062
O      14.97783      9.24551      6.61373         0.200762      0.225825     -0.350127
O       3.67183      9.63146     10.57677         0.591457      0.148816     -0.250113
O      14.96001      9.09797     10.64929         0.522611      0.202959     -0.243238
O       7.49291      1.73094      2.35921         0.470510     -0.048078      0.046776
O       7.46688      1.97231     14.53940         0.153182     -0.015903      0.121037
O       7.48440     13.22055      2.45111        -0.279979      0.402848     -0.630396
O       7.49184     12.85656     14.52858        -0.306067      0.157055      0.138864
O       7.56456      1.84760      6.44114         0.599104      0.191384      0.348141
O       7.45589     12.81074      6.45995        -0.046729      0.512760      0.209591
O       7.60346      1.67768     10.60630        -0.833087     -0.074625     -0.257934
O       7.53061     13.46149     10.53332        -0.650483     -0.161918      0.196618
O       7.46902      5.80737      2.14521        -0.339161      0.197596      0.368929
O       7.54194      5.46253     14.74644        -0.517415      0.178693     -0.047049
O       7.52418      5.63683      6.48421        -1.362031      0.526163      0.231628
O       7.58424      5.83463     10.50891        -1.269302     -0.273181     -0.054309
O       7.46490      9.24018      2.41261         0.189280     -0.314951     -0.404307
O       7.49198      9.51647     14.57055         0.335652      0.322879      0.174327
O       7.43402      9.48923      6.51941         0.226454     -0.882040     -0.401828
O       7.48044      9.10656     10.62595        -0.651925      0.364701      0.066516
O      11.24458      2.08912      2.23993         0.576289     -0.288237      0.338232
O      11.21385      1.76507     14.64204         0.334439     -0.284724      0.022338
O      11.24713     12.93360      2.15991        -1.583796      0.297908      0.699323
O      11.22882     13.18309     14.76910         0.758604      0.507107     -0.307298
O      11.28259      1.94567      6.57941        -1.089547     -0.642332     -0.447535
O      11.22343     12.87250      6.44351        -0.659459      0.467255      0.112865
O      11.34136      2.02180     10.63222         0.049628      0.554205      0.057976
O      11.25218     12.87624     10.64581         0.716853      0.383415     -0.418998
O      11.29286      5.54143      2.46756        -1.198715      0.044502     -0.321450
O      11.22118      5.75406     14.61170         0.128369     -0.230835      0.256612
O      11.32139      5.55491      6.43058        -2.093530     -0.144373      0.178142
O      11.31924      5.48011     10.60198        -0.504742     -0.653727     -0.226904
O      11.24692      9.50055      2.27266        -0.059368     -0.143770      0.183869
O      11.22159      9.25673     14.83670         1.251471     -0.555136     -0.362935
O      11.22132      9.40789      6.47395         0.383899     -0.012440     -0.019258
O      11.22479      9.50424     10.70650         0.511564      0.235514     -0.693510
O       1.79542      3.71985      2.19008        -0.669646      0.140056      0.959521
O       2.12296      3.69433     14.74885        -0.454043      1.055964     -0.367175
O       2.00675     14.98230      2.48529        -0.025584     -1.115294     -0.124883
O       1.65243     15.00363     14.60555         0.122622     -0.091932      0.210460
O      13.18209      3.71707      2.37021         0.837518     -0.177378      0.029298
O      12.90389      3.80184     14.64721         0.010562     -1.215864     -0.182123
O      12.95986      0.05507      2.42713        -0.507319     -0.034355     -0.232252
O      13.26087     14.97295     14.70218        -0.264563      0.014642     -0.957123
O       1.59808      3.72883      6.34769         1.050715     -0.055934     -0.085181
O       1.91884      0.03946      6.55839         0.498642     -0.786610     -0.258259
O      13.13810      3.66740      6.46560         0.612805      0.630877     -0.055849
O      12.94763     14.99444      6.43582        -0.285163      0.045077      0.301686
O       1.67945      3.71510     10.50100         0.364753      0.348039      0.049805
O       2.16434     15.00730     10.49116        -0.331135      0.232700      0.147180
O      13.32144      3.74906     10.55560         0.045081     -0.598233      0.161444
O      12.96205      0.03602     10.61775        -0.152820     -1.073838     -0.337579
O       1.96889      7.49345      2.20396         0.280202      0.447374      0.432194
O       1.74315      7.46959     14.60617        -0.348336      0.648239     -0.039067
O      13.16114      7.48786      2.35625        -0.688230      0.480042     -0.315689
O      13.22530      7.46133     14.70485         0.230197      1.126974      0.188594
O       1.90595      7.50113      6.55662         0.046752     -0.955486      0.026874
O      13.03022      7.46875      6.49673         0.566896     -0.074074      0.339529
O       2.09874      7.54955     10.66597         0.018760     -1.855431     -0.667587
O      12.92248      7.43983     10.65858         0.335515      0.873152     -0.684931
O       1.70935     11.27131      2.30083         0.336123      0.862983      0.369390
O       2.15886     11.24805     14.71747        -0.693367     -0.034409     -0.563619
O      13.20006     11.31508      2.52953         0.221385     -0.897541     -0.696106
O      12.90670     11.17188     14.74485         0.528922      1.771368     -0.254174
O       1.84521     11.27575      6.63651        -0.593354     -0.524443     -0.369061
O      13.37004     11.25974      6.33757        -0.466643     -0.772134      0.241241
O       1.54171     11.22050     10.52765         0.197218      0.804285     -0.387039
O      13.37345     11.24230     10.57268        -0.111347      0.349676      0.041748
O       5.73012      3.70155      2.43509        -0.067660      1.811827     -0.178213
O       5.51142      3.74829     14.59667        -0.430498     -0.251726      0.208736
O       5.40231     15.00973      2.33208         0.882270      0.295201      0.137854
O       5.72852      0.01586     14.66228         0.655376     -0.848752     -0.142731
O       5.67841      3.83672      6.41171         0.439288     -0.640176     -0.050469
O       5.68271     14.98279      6.54699         0.145982      0.162896      0.093749
O       5.93761      3.76860     10.47166        -0.209806      0.284456      0.596132
O       5.44549      0.03237     10.53340        -0.014613     -0.216777     -0.455849
O       5.34597      7.49071      2.31377         0.397003      0.136664     -0.245023
O       5.82978      7.49233     14.74004        -0.381361      0.291526     -0.270115
O       5.57671      7.58142      6.47737         0.123872     -1.044906      0.338939
O       5.45620      7.49654     10.57769        -0.236712     -0.213632     -0.343883
O       5.71996     11.32167      2.22188         0.055001     -0.498694      0.176571
O       5.41406     11.23172     14.70622         0.011397      0.621157     -0.413059
O       5.45089     11.21247      6.48708         0.270798      0.309530     -0.038056
O       5.91813     11.26108     10.67910         0.021073     -0.661939      0.237172
O       9.21298      3.80017      2.38514        -0.029478     -1.027424      0.421903
O       9.38894      3.65560     14.72925         0.507206      0.790371     -0.234223
O       9.49283      0.01298      2.30461         0.221691     -0.782700      0.068052
O       9.24931     14.93607     14.82731        -0.182819      0.671853     -0.559201
O       9.38103      3.74003      6.58236        -0.091057     -0.455648     -0.468233
O       9.28467     14.81918      6.45671         0.607101      1.491101     -0.098604
O       9.13247      3.77379     10.42941         0.539836     -1.220216      0.211232
O       9.74054     14.99061     10.50819        -0.326363      0.400500      0.083271
O       9.45678      7.52191      2.38493        -0.122295     -1.155983     -0.302177
O       9.24554      7.44597     14.49296        -0.153932     -0.429164      0.601229
O       9.42201      7.49449      6.46760        -0.160191      0.528912      0.194675
O       9.48646      7.43936     10.62309         0.649634      0.521013      0.174580
O       9.12295     11.18501      2.13952         0.318525      0.653197      0.331425
O       9.58512     11.25926     14.64419        -0.512586     -1.389238      0.059371
O       9.38975     11.11567      6.59392        -0.146916      0.977867     -0.285404
O       9.08705     11.27814     10.69421         0.180979     -0.525931     -0.180894
