  # total energy = -7880.86182948 
CRSYTAL
PRIMVEC
    15.3600000000000000    0.0000000000000000    0.0000000000000000
     0.0000000000000000   15.3600000000000000    0.0000000000000000
     0.0000000000000000    0.0000000000000000    17.440000000000000
PRESSURE
0.598273 0.915877 1.99085 -0.035396 -0.206043 -0.017771
PRIMCOORD
320 1
Pb       3.93280      3.80245      4.39743        -0.082290     -0.034690     -0.824785
Pb       3.89252      3.81211      0.02976         0.376816      0.094195     -0.355605
Pb       3.76829      0.02956      4.34410         0.446539      0.034228     -0.109822
Pb       3.77847     15.28824     17.35549        -0.285542      0.367579     -0.608392
Pb       0.08430      3.79348      4.36828        -0.250425     -0.173408     -0.684971
Pb       0.06452      3.87888      0.01234        -0.772107     -0.058951     -0.472447
Pb       0.10678      0.03701      4.36900        -0.611329      0.113111     -0.144864
Pb      15.23654      0.06529     17.37227         0.194305     -0.155967     -0.333918
Pb       3.74878      3.79708      8.70406         0.340044      0.270592     -0.473958
Pb       3.77494     15.31630      8.64636         0.335429     -0.009781     -0.423350
Pb      15.10347      3.96320      8.64371         0.503903     -0.112859      0.235403
Pb      15.22489     15.29365      8.74034         0.165084     -0.059265     -0.244875
Pb       3.92387      3.63685     13.07234        -0.360903      0.636914     -0.836822
Pb       3.78151      0.01205     12.93655        -0.395964     -0.231389     -0.106735
Pb       0.03195      3.77970     13.02382        -0.093184     -0.137963      0.063040
Pb      15.28340     15.21491     13.06399         0.309255      0.482939     -0.542759
Pb       3.83799      7.67486      4.32090         0.467450      0.021332     -0.005840
Pb       3.81052      7.62983      0.02588         0.136341     -0.040480     -0.529755
Pb       0.14006      7.78381      4.29811        -0.195816     -0.634988      0.548379
Pb      15.33372      7.70327      0.05096        -0.205649     -0.317528     -0.741783
Pb       3.76972      7.70598      8.62826         0.080653     -0.042179     -0.296394
Pb      15.28937      7.62876      8.64151        -0.028618      0.349240     -0.001196
Pb       3.89095      7.56215     13.05754        -0.463010      0.301553     -0.624334
Pb      15.33000      7.65525     13.08337         0.159899      0.158345     -0.318965
Pb       3.81108     11.55156      4.28766         0.294421     -0.192322      0.099794
Pb       3.92934     11.60025     17.42305        -0.390839     -0.488211     -0.693466
Pb       0.10926     11.55753      4.31721        -0.937976     -0.294489      0.124512
Pb      15.25307     11.50419     17.37705        -0.141182      0.123500     -0.477932
Pb       3.86800     11.48244      8.65144        -0.298975     -0.128926      0.083592
Pb       0.00976     11.47578      8.72899        -0.849039     -0.241461     -0.370639
Pb       3.92425     11.39128     13.06218        -0.837886      0.169487     -0.250088
Pb       0.18079     11.50152     13.02334        -0.403068     -0.055939     -0.232060
Pb       7.67017      3.79090      4.23336         0.127240      0.030300     -0.603534
Pb       7.70643      3.82913      0.04978        -0.435519     -0.067344     -0.024175
Pb       7.66076     15.33192      4.42358         0.155292     -0.190121     -0.807300
Pb       7.51055      0.02932     17.33582         0.385358      0.117162      0.346686
Pb       7.50861      3.91335      8.71942         0.225443     -0.486866     -0.606475
Pb       7.66920     15.35167      8.78758        -0.602525      0.363162     -0.918786
Pb       7.86102      3.90128     13.01979        -0.860720     -0.236950     -0.082221
Pb       7.69835      0.09849     12.97403        -0.031381      0.065763      0.044742
Pb       7.73116      7.56962      4.33080         0.015224      0.005510     -0.146209
Pb       7.58216      7.75163      0.02380        -0.273372     -0.021218     -0.634444
Pb       7.73295      7.60883      8.72599         0.195011      0.324658     -1.019083
Pb       7.71224      7.72565     13.09253        -0.696715     -0.305518     -0.140751
Pb       7.64069     11.44253      4.35663         0.015646      0.379128     -0.773262
Pb       7.66410     11.61142     17.30500        -0.057413     -0.572516     -0.478758
Pb       7.65388     11.59329      8.65979         0.390596     -0.471942     -0.394761
Pb       7.78636     11.58796     12.93626        -0.621749     -1.059312      1.399069
Pb      11.46409      3.75494      4.30001        -0.031886     -0.094988     -0.344109
Pb      11.68949      3.89549      0.16653        -0.262071     -0.338157     -1.419885
Pb      11.63223     15.29578      4.38443        -0.353445     -0.427688     -0.911868
Pb      11.23559     15.25622      0.03960         0.769223      0.299855     -0.074754
Pb      11.46967      3.86652      8.64039        -0.033711      0.132201      0.008199
Pb      11.46181      0.05757      8.76144         0.458223     -0.343370     -0.754053
Pb      11.53579      3.72570     13.01229         0.232177      0.561407      0.210439
Pb      11.47965     15.29142     13.10361         0.067132      0.159000     -0.570007
Pb      11.57957      7.52512      4.37047        -1.127178      0.596176     -0.110722
Pb      11.45206      7.72179     17.42985         0.227263     -0.180822     -0.919124
Pb      11.61375      7.71962      8.66672        -0.944244     -0.267006      0.310380
Pb      11.34627      7.57101     13.15815         0.719973      0.085857     -0.495793
Pb      11.52199     11.43934      4.27082        -0.066450      0.938599     -0.801239
Pb      11.40226     11.45542     17.35985         0.135892     -0.088454     -0.180045
Pb      11.49525     11.41634      8.64464         0.312571      0.044179     -0.034132
Pb      11.57571     11.49169     13.04391         0.070544     -0.258380     -0.261783
Ti       1.90636      1.91342      2.22890         0.396400     -0.314954      1.918037
Ti       1.91085      1.96313     15.33439        -0.980374     -0.638746      0.405980
Ti       1.90188     13.47550      2.27864        -0.386539     -0.027220      0.264248
Ti       1.80950     13.41405     15.32172         0.177852      0.315412      0.968217
Ti      13.47066      1.85064      2.28532        -0.195124     -0.142850      0.016591
Ti      13.35679      1.86154     15.37524         0.989956      0.631270      2.224494
Ti      13.50702     13.37475      2.26718        -1.642843      0.273954      1.783960
Ti      13.34140     13.41829     15.35090         0.227631      0.467925      1.166976
Ti       1.83946      1.90500      6.71564         0.171108     -0.148472     -0.752116
Ti       1.90875     13.38281      6.71111        -0.281029      0.150702      1.621260
Ti      13.40564      1.90600      6.61467        -0.378401     -0.383009      1.572603
Ti      13.40367     13.45951      6.60704         0.240779     -0.891747      0.973757
Ti       1.88837      1.93714     10.86739        -0.579970     -0.848245      2.367095
Ti       1.96178     13.46463     10.91495        -1.061086     -0.275780      0.365865
Ti      13.41738      1.90461     11.03138         0.672889      0.164913      0.360001
Ti      13.36194     13.39676     10.97895         1.054986      0.295086      0.141688
Ti       1.90767      5.71919      2.37123         0.266843     -0.101889      0.836820
Ti       1.91101      5.74151     15.37037        -0.591076      0.423581      1.377377
Ti      13.39149      5.73880      2.27510         1.485402     -0.861558     -0.166275
Ti      13.42354      5.72273     15.32747        -0.541141     -0.439841      1.477130
Ti       1.90889      5.67986      6.49490        -0.689379      1.187125      2.380722
Ti      13.35284      5.81419      6.56127        -0.400893     -0.192337      2.498378
Ti       1.89600      5.72264     11.04536        -0.105824     -0.131080     -0.165367
Ti      13.43012      5.80379     11.18152        -0.176886     -0.376491     -0.186513
Ti       1.91075      9.62823      2.24064        -0.128095     -0.563607      0.376870
Ti       1.80041      9.54619     15.42319         0.739992      0.097686     -0.500611
Ti      13.31463      9.44230      2.30835         0.233414      2.438753     -0.201894
Ti      13.38459      9.53908     15.32474        -0.240957      0.071444      0.845390
Ti       1.84535      9.55739      6.70377        -0.809388      0.022874      1.439053
Ti      13.31817      9.61579      6.48042         1.135715      0.714658      2.760406
Ti       1.73383      9.53234     10.97816         0.840598      0.223084      1.205123
Ti      13.32395      9.59603     11.07661         0.414977     -1.233388     -0.108216
Ti       5.73430      1.83429      2.31381         0.390314      0.826689      0.867237
Ti       5.74698      1.94286     15.29926        -0.026765      0.190846      2.266862
Ti       5.71603     13.36822      2.24710         0.907339      0.798639      1.048552
Ti       5.69183     13.48151     15.27449        -0.096150     -0.785944      0.800479
Ti       5.74206      1.88887      6.63866        -0.427691      0.038971      3.230319
Ti       5.84930     13.35748      6.61464        -1.480273      1.448159     -0.047894
Ti       5.77709      1.92566     11.02417        -0.337943     -0.017387     -0.598212
Ti       5.80912     13.42205     11.06083        -1.647374      0.118323     -0.138416
Ti       5.79002      5.77810      2.29364        -0.175029     -1.296905      0.337364
Ti       5.75102      5.73999     15.35402         0.044829      0.325666      1.468989
Ti       5.74385      5.85644      6.61553         0.210679     -1.078806      2.300206
Ti       5.67729      5.71833     10.94761         0.092950     -0.183110      0.660692
Ti       5.72434      9.55599      2.32608         0.000846     -0.126214     -0.355435
Ti       5.59540      9.62856     15.34614         0.972005     -0.504315      2.056146
Ti       5.76829      9.64024      6.62148        -0.372317     -1.656913      0.070445
Ti       5.65412      9.58375     11.02652        -0.654387     -0.666989     -1.171547
Ti       9.61563      1.79809      2.37429        -1.021681      0.115736      0.892114
Ti       9.59382      1.92335     15.44035         0.145988      0.377853      0.724561
Ti       9.52419     13.38220      2.25207         0.650512      0.308269      2.073706
Ti       9.51141     13.45593     15.33553        -0.303178     -0.761185      0.570858
Ti       9.53076      1.87842      6.67760         0.415124      0.513089      1.021896
Ti       9.74921     13.40630      6.64031        -1.124054     -0.584159     -0.382006
Ti       9.68505      1.88993     10.92956        -1.705001      0.718637      1.405839
Ti       9.52763     13.38736     10.99702         1.758317      0.459389     -0.782807
Ti       9.67717      5.75679      2.22701        -1.600450     -0.444481      1.734338
Ti       9.48955      5.67393     15.47254         0.906595      0.323956      0.748013
Ti       9.58712      5.70911      6.65428        -0.089517      0.937769      0.305682
Ti       9.53858      5.78795     11.06061         0.826701     -0.051234     -1.537320
Ti       9.51025      9.54991      2.34971        -0.059691      0.537583      0.247410
Ti       9.49477      9.46579     15.29670        -0.637611      1.014259      1.989369
Ti       9.56429      9.58308      6.47513        -0.413903     -1.171432      2.113978
Ti       9.51448      9.54512     10.99507         0.509573      0.059071      0.669032
O       1.97718      1.93729      0.51973        -0.048190     -0.171143     -1.060706
O       1.91795      1.96609     13.57675         0.415683      0.229208     -0.333770
O       1.86303     13.58203      0.54115         0.205034     -0.456253     -0.013351
O       1.89812     13.35382     13.56940        -0.133980      0.212029      0.418945
O      13.52569      1.75342      0.51581        -0.419260      0.606750      0.603804
O      13.25381      1.92428     13.67030        -0.040951     -0.114840     -1.752181
O      13.41048     13.48037      0.56138         0.009663     -0.178036     -1.203382
O      13.50150     13.31425     13.62481        -0.611340      0.337997     -1.174653
O       1.91763      1.90471      4.87299        -0.229175      0.083667      1.139849
O       1.94093     13.26517      4.98384        -0.343673      0.363682     -1.247945
O      13.44922      1.87052      4.89845         0.047369      0.415848     -1.377599
O      13.29168     13.36246      4.85539         0.311361      0.056323     -0.187200
O       1.94771      1.88513      9.16556        -0.172427     -0.026874     -1.944471
O       1.87864     13.50336      9.12686         0.219760     -0.231189      0.491548
O      13.37803      1.82181      9.27680        -0.089661      0.115965     -0.209187
O      13.37783     13.56520      9.23578        -0.100574     -0.174362      0.323486
O       1.88108      5.76578      0.62888        -0.017226     -0.015195      0.022961
O       1.82513      5.66906     13.64488         0.573550      0.117647     -0.839539
O      13.53882      5.70110      0.50177        -0.686272      0.209755      0.334437
O      13.41250      5.66351     13.58609         0.039499      0.097405     -0.722462
O       1.93601      5.67083      4.78152        -0.051121     -0.094968     -1.652722
O      13.15462      5.87817      4.87430         0.734892     -0.757620     -1.428009
O       1.87410      5.77461      9.29993         0.091920      0.116898     -0.426070
O      13.32923      5.78233      9.43557         0.464887     -0.072766     -1.480441
O       1.82084      9.51454      0.48773         0.043934      0.287605      0.491395
O       1.83720      9.51899     13.64307        -0.149393      0.110904      0.168132
O      13.29827      9.48838      0.52098         0.317601      0.092471      0.246635
O      13.43548      9.67015     13.58131        -0.439783     -0.088098      0.055701
O       1.77560      9.63209      4.98885         0.048519      0.199254     -1.803822
O      13.45310      9.59019      4.74333        -0.106983     -0.182173     -0.364900
O       1.72050      9.59482      9.23924         0.381456     -0.489076     -0.850598
O      13.27585      9.54110      9.32327        -0.050412     -0.157059     -0.185466
O       5.78843      1.99872      0.60804        -0.174037     -0.563347     -1.754076
O       5.78014      1.81367     13.58248        -0.263392      0.261149     -1.214478
O       5.63908     13.36276      0.48473         0.251852     -0.007360     -0.448498
O       5.71930     13.39772     13.54683        -0.208083      0.351703     -1.061347
O       5.77534      1.81894      4.94890        -0.261786      0.182438     -2.008624
O       5.79749     13.48551      4.85302        -0.291300     -0.568220      0.008805
O       5.78922      1.95131      9.25872        -0.282890      0.010642     -0.267282
O       5.76075     13.31183      9.30537         0.427210      0.086290     -0.358999
O       5.68314      5.77641      0.55958        -0.031076      0.137339     -0.992089
O       5.87121      5.71845     13.62223        -0.490264     -0.033874     -0.540705
O       5.68936      5.91337      4.92624         0.063443     -0.505292     -1.764605
O       5.67526      5.55217      9.16508        -0.006912      0.625357      0.334027
O       5.68774      9.45713      0.53893         0.089949      0.476933      0.200389
O       5.64871      9.74127     13.65025        -0.060869     -0.838309     -2.328937
O       5.67828      9.71795      4.86921         0.019888     -0.154311     -0.378728
O       5.61414      9.59817      9.22562         0.316494      0.158905      0.688079
O       9.56866      1.78154      0.64721        -0.117471     -0.122752     -1.390099
O       9.57911      1.80686     13.69180         0.166046      0.175192     -0.532371
O       9.45766     13.43999      0.51431         0.154810      0.070100     -1.682187
O       9.52712     13.52675     13.60231         0.035439     -0.047138     -1.576812
O       9.50351      1.93284      4.95254         0.015008      0.033350     -0.812807
O       9.80080     13.28070      4.87417        -0.421459      0.373866      0.776905
O       9.59013      2.01417      9.22703         0.126051     -0.601043     -1.151710
O       9.61541     13.31865      9.22351        -0.769321      0.312598      0.491790
O       9.55261      5.62408      0.52576         0.302448      0.544117     -1.052083
O       9.43163      5.66919     13.70612         0.091448      0.386339     -1.289808
O       9.75691      5.86650      4.90351        -0.232227     -0.535530     -0.852659
O       9.52560      5.90108      9.25921        -0.247506     -0.441963      1.284136
O       9.34168      9.45739      0.61825         0.524485      0.375502     -1.259508
O       9.42956      9.57771     13.57943         0.485269     -0.271498     -1.142680
O       9.58471      9.51870      4.73601        -0.045861      0.409948     -0.496327
O       9.44183      9.41549      9.26179         0.016084      0.505235      0.100802
O       3.86290      1.98469      2.72313        -0.916021     -0.141791      0.307434
O       3.79221      1.89409     15.79254         1.110870      0.690217     -0.158812
O       3.82667     13.33862      2.65314        -0.880888      0.066441      0.129720
O       3.78131     13.29056     15.80190        -0.605334      0.743295     -0.142357
O       0.02071      1.88404      2.72105        -0.475597     -0.249251      0.041687
O       0.03585      1.85221     15.67823        -0.528531      0.348633      0.378360
O      15.33865     13.60611      2.75767         0.733975     -0.932108     -0.125811
O      15.22046     13.52663     15.81230         1.608712     -1.062954     -0.177454
O       3.78804      1.97558      7.07120        -0.078028     -0.146974     -0.073095
O       3.81053     13.35819      7.02637        -0.167412     -0.262534      0.212460
O      15.28006      1.77626      7.13253         0.050345      0.767537     -0.350211
O      15.22987     13.45566      7.18623         0.754059      0.109208     -0.771453
O       3.80623      1.78630     11.37682         0.276447     -0.106994      0.275171
O       3.79278     13.55216     11.36241         0.617728     -0.144523     -0.046228
O      15.32459      2.00647     11.50494         0.044262     -0.152900     -0.693334
O      15.35004     13.47206     11.46604        -0.434737     -1.086187     -0.402815
O       3.90603      5.69830      2.78091        -1.451633     -0.446882      0.079875
O       3.79852      5.81405     15.87733         0.020482     -0.776739     -0.544649
O      15.27218      5.71548      2.77448         1.015977      0.468697      0.001833
O      15.29182      5.76372     15.80904         0.052794      0.434255     -0.011953
O       3.69495      5.74580      6.99839         0.832727     -0.006337     -0.005327
O      15.20288      5.81530      7.06163         0.090798     -0.309111     -0.504607
O       3.82952      5.64081     11.49322        -0.092241      0.594589      0.190794
O       0.04538      5.62074     11.46505        -0.336523     -0.251744      0.211042
O       3.83185      9.70202      2.73860        -0.780079     -0.300066     -0.151904
O       3.70991      9.64006     15.72930         0.651295     -0.021977      0.358644
O       0.06414      9.37306      2.77559        -0.334875      0.923769     -1.126254
O      15.24494      9.50280     15.78486        -0.474915      0.345402      0.330364
O       3.72057      9.61431      7.05692         0.604922     -0.062714      0.166146
O      15.17999      9.54945      7.25179        -0.004159     -0.080380     -1.097600
O       3.74202      9.43806     11.41091         0.561683      0.235350      0.264214
O      15.23922      9.65049     11.48478         0.766983     -0.118516     -0.120386
O       7.59861      1.83588      2.84859         0.608600      0.103234      0.090019
O       7.66097      2.03293     15.84854        -0.021353     -0.998926     -0.269643
O       7.65302     13.48463      2.69622        -0.703602     -0.428492      0.062777
O       7.52367     13.45727     15.68448         1.050622     -0.102826      0.501669
O       7.58713      1.81178      7.13434         1.006363      0.006070     -0.038452
O       7.63611     13.43247      6.93688         1.357211     -0.313805      0.715080
O       7.59907      1.92247     11.32197         2.267514      0.139483      0.549780
O       7.67062     13.34818     11.51320         0.433810      0.292010     -0.898271
O       7.67325      5.81878      2.72398         1.164125     -0.312445      0.166204
O       7.59750      5.73365     15.89744         0.184829     -0.017682     -0.025342
O       7.70695      5.85390      6.91841        -1.287810     -0.265516      0.479260
O       7.57081      5.67280     11.46755         1.430030      0.540583     -0.432450
O       7.57118      9.61309      2.73619         0.664490     -0.274417      0.389366
O       7.58682      9.52447     15.70041         0.516900      0.103182      0.383376
O       7.62733      9.48741      6.86050         0.459625      0.358298      0.330442
O       7.56794      9.53841     11.49742         0.695766      0.299053     -0.439949
O      11.45062      1.81407      2.71177         1.363836      0.460612      0.210491
O      11.49150      1.97976     15.89658        -0.749476     -0.852036     -0.073981
O      11.42988     13.43128      2.69418         1.056414     -0.006336     -0.280143
O      11.38532     13.46181     15.63335         0.756050      0.222643      0.485864
O      11.47549      1.96407      7.04233        -0.207336     -0.243244      0.131980
O      11.51491     13.33848      7.17881         0.328200      0.142562     -0.199534
O      11.48078      1.89005     11.49132         0.136507     -0.523351     -0.203397
O      11.48022     13.54399     11.33415        -0.198951     -0.206467      0.669969
O      11.53772      5.63535      2.68302        -0.659010      0.668883     -0.185185
O      11.44148      5.69116     15.75976         0.638265      0.235460      0.385448
O      11.43411      5.71514      7.09974         1.443184     -0.131466      0.206414
O      11.53740      5.95864     11.43212        -1.576339     -0.763832      0.668852
O      11.43873      9.63940      2.61049         0.749130     -0.322236     -0.005341
O      11.43807      9.52433     15.85019        -0.519741      0.443591     -0.290240
O      11.40515      9.65305      7.06437         0.714436     -0.016727     -0.727185
O      11.47669      9.42146     11.54963        -0.719368      0.666425      0.026590
O       1.80495      3.72874      2.72538         0.512941      1.477958     -0.018749
O       1.69869      3.90960     15.86465         1.573490     -0.675290     -0.460135
O       1.91025     15.33568      2.86368         0.647257      0.062481     -0.664782
O       1.95553      0.03554     15.68677         0.108694     -1.410277      0.070602
O      13.39222      3.82667      2.64377        -0.070842     -0.721758      0.234179
O      13.39532      3.76655     15.85519         0.359649      0.688970      0.026965
O      13.41040     15.34331      2.70125        -0.031198      0.188250      0.361516
O      13.55742     15.35170     15.79161        -1.681448     -0.150347     -0.539915
O       1.70154      3.86564      6.90113         0.076300     -0.518990      0.422042
O       1.87770      0.02552      7.01240         0.319036     -0.895327     -0.007467
O      13.33645      3.81058      7.16205         0.423774      0.683421     -0.845969
O      13.30680     15.33776      6.92518        -0.241892      0.031752      0.429002
O       2.06326      3.73921     11.20231        -0.332950      0.809115      0.757005
O       1.73992     15.31622     11.31957         0.681093      0.375755      0.260755
O      13.29513      3.82596     11.39055         0.153839     -0.455898      0.487814
O      13.51920      0.02370     11.43263        -0.717366     -0.645548      0.358612
O       2.10333      7.65037      2.81161        -0.993071      0.093270     -0.640924
O       1.88425      7.67471     15.88870        -0.288900     -0.495884     -0.149206
O      13.33756      7.65153      2.61969         0.007219     -1.058022      0.366826
O      13.30346      7.66753     15.74904         0.146644     -0.294856     -0.190108
O       1.74231      7.67376      6.92552         0.385727     -0.781856      0.389020
O      13.20635      7.73722      6.99456         0.534383     -0.763186     -0.544083
O       1.76725      7.65529     11.46395         0.359804     -0.507663      0.010823
O      13.56509      7.64317     11.48431        -0.041755      0.572836      0.469365
O       1.74711     11.51318      2.72404         0.559654      0.158367     -0.701362
O       1.70019     11.44033     15.85288         0.181965      1.367871     -0.254315
O      13.49726     11.45597      2.63200         0.222332      0.205108     -0.009492
O      13.23350     11.57305     15.81324         0.668434     -1.169772      0.177603
O       1.69970     11.46158      7.15384         0.593412      0.825610     -0.310940
O      13.40516     11.47400      7.15001        -0.316927      0.074052     -0.733159
O       1.92204     11.41341     11.40684         0.045157      1.144026     -0.219450
O      13.28167     11.44674     11.32801        -0.159919      1.879831      0.332071
O       5.87507      3.85513      2.52701        -0.296110     -0.474376      1.404361
O       5.78153      3.81395     15.84366        -0.841995     -0.066364     -0.420398
O       5.64047     15.31529      2.62280        -0.006386     -0.506188      0.197660
O       5.78297      0.01640     15.76142        -0.807535      0.369458     -0.161429
O       5.75381      3.85468      7.06768        -0.014866     -0.155917     -0.507066
O       5.70635     15.26804      7.12085        -0.132951      0.310456      0.001484
O       5.74340      3.79103     11.43727        -0.489876      0.125739      0.177635
O       5.93710     15.32254     11.32169        -0.720233     -0.484853      0.315404
O       5.74271      7.59539      2.68368        -0.378264      2.353442      0.520138
O       5.71965      7.65908     15.69614        -0.400145      0.145433      0.106263
O       5.71299      7.67881      7.05494        -0.654998      0.326928      0.295074
O       5.67856      7.59870     11.22470         0.135882      0.255423      0.670181
O       5.77788     11.49330      2.69643        -0.109377      0.324600     -0.053313
O       5.70647     11.52828     15.61881        -0.058438      0.109613      1.104380
O       5.76497     11.42497      7.11795        -0.016536      1.467255      0.016126
O       5.59593     11.47752     11.42045         0.569112      0.258798     -0.045076
O       9.60140      3.79987      2.65599        -0.349544      0.315982      0.604674
O       9.56545      3.85888     15.87840        -0.191573     -1.440229     -0.106773
O       9.51949     15.32066      2.82377         0.225123     -0.312339     -0.073453
O       9.52763     15.29197     15.82159        -0.303051      1.466805      0.175929
O       9.53358      3.83416      7.10182        -0.225038     -0.524973     -0.181334
O       9.67957     15.29667      7.06108        -0.503327      0.347359      0.136820
O       9.65433      3.86172     11.40833        -0.166834      0.022346      0.043387
O       9.54535      0.02670     11.27121        -0.278638     -0.739394      0.279250
O       9.57941      7.67423      2.65540         0.258491     -0.979368      0.104009
O       9.53224      7.61334     15.73024         0.015242      0.567527      0.186364
O       9.63922      7.65101      7.02169        -0.254753      0.918251      0.001968
O       9.65471      7.70166     11.42687        -1.516817     -0.795638      0.699936
O       9.60146     11.51614      2.59857        -0.628401     -0.556312      0.396923
O       9.46768     11.52489     15.68161         0.232694     -0.429893      0.460719
O       9.52397     11.46072      7.03724        -0.273555      0.161497     -0.008534
O       9.65840     11.49481     11.37234        -0.292015     -0.114228      0.141970
