  # total energy = -7879.88287266 
CRSYTAL
PRIMVEC
    15.3600000000000000    0.0000000000000000    0.0000000000000000
     0.0000000000000000   15.3600000000000000    0.0000000000000000
     0.0000000000000000    0.0000000000000000    17.440000000000000
PRESSURE
0.880716 1.22368 1.92058 -0.215896 -0.30167 -0.031253
PRIMCOORD
320 1
Pb       3.86674      3.81065      4.29419        -0.249871      0.121833     -0.670511
Pb       3.76218      3.87855     17.41619        -0.198108     -0.415775     -0.522240
Pb       3.86078     15.33982      4.29269         0.165861     -0.284025     -0.429044
Pb       3.90508     15.29469      0.02237        -0.364815      0.541179     -0.962433
Pb      15.34156      3.87992      4.31718        -0.238425     -0.128647     -0.647746
Pb      15.23675      3.74033     17.35075         0.006708     -0.246678     -0.010579
Pb      15.32749      0.01582      4.40476        -0.398388     -0.478355     -0.935483
Pb       0.16314      0.04799     17.37371        -0.494045     -0.287099      0.029416
Pb       3.95302      3.85045      8.64658        -0.674549     -0.093849     -0.152350
Pb       3.81606     15.31256      8.62872        -0.214178      0.059530     -0.347386
Pb       0.15127      3.76946      8.72693         0.144059      0.367115     -0.409422
Pb       0.07851     15.28848      8.66172         0.233239     -0.121315     -0.538041
Pb       3.90478      3.91937     13.11427        -0.574887     -0.611573     -0.435016
Pb       3.99092      0.07809     13.16835        -0.340242      0.051374     -0.018541
Pb      15.32070      3.87786     12.96843         0.637254     -0.178193     -0.334087
Pb      15.32854     15.33680     13.07645        -0.130827     -0.123813     -0.289569
Pb       3.78129      7.64459      4.36485        -0.277451      0.308650     -0.508658
Pb       3.89547      7.73940     17.41786        -0.281177     -0.143845     -0.647060
Pb      15.19799      7.57969      4.32892         0.559542     -0.055466     -0.443671
Pb       0.15517      7.58197      0.01651        -0.521994      0.251342     -0.345388
Pb       3.74723      7.68305      8.62641        -0.326675     -0.218172     -0.547772
Pb      15.31499      7.73899      8.64001         0.336407     -0.640520     -0.356141
Pb       3.87893      7.75246     13.07360         0.285245     -0.157270     -0.587798
Pb      15.26011      7.71517     12.96517         0.400332     -0.468382      0.048534
Pb       3.92507     11.43737      4.41528        -0.652829     -0.155750     -0.645692
Pb       3.67793     11.53768      0.02395         0.193556     -0.003752     -0.459526
Pb      15.28217     11.36512      4.39828         0.455064      0.495029     -0.552545
Pb       0.06502     11.42692      0.06791        -0.360486      0.263444     -0.465178
Pb       3.83615     11.45247      8.65034        -0.166653      0.139303     -0.507198
Pb       0.05562     11.63648      8.65582        -0.008742      0.197443     -0.359350
Pb       3.75381     11.56079     13.06019         0.239258     -0.085325     -0.424678
Pb      15.20760     11.47297     12.95322        -0.086908      0.200040      0.270317
Pb       7.57902      3.93534      4.23709         0.135420     -0.549579      0.190591
Pb       7.64287      3.79760      0.03410        -0.277181     -0.395927     -0.722827
Pb       7.56353     15.27592      4.35104        -0.048681      0.098922     -0.830037
Pb       7.82777     15.26805      0.02138        -0.548263      0.634238     -0.564313
Pb       7.67886      3.85789      8.63859        -0.017448     -0.499072     -0.247751
Pb       7.69355      0.11112      8.72276        -0.558677     -0.107955     -0.431541
Pb       7.58709      3.70601     12.99592        -0.263044      0.182136     -0.192410
Pb       7.66826     15.18592     13.12973         0.130720      0.393549     -0.228228
Pb       7.66929      7.77926      4.39869         0.338334     -0.740465     -0.376840
Pb       7.66497      7.62113     17.39162         0.470023      0.149932     -1.024289
Pb       7.72025      7.54221      8.74813        -0.167034      0.233091     -0.232523
Pb       7.78919      7.68168     13.13658        -0.604250      0.115504     -0.759253
Pb       7.63726     11.47903      4.33658         0.251006      0.617705     -0.094703
Pb       7.67071     11.43211     17.34510         0.101269     -0.086233     -0.172742
Pb       7.70658     11.53128      8.78333         0.004222     -0.101795     -0.973385
Pb       7.55041     11.49563     13.04996         0.683547     -0.352821     -0.708134
Pb      11.55405      3.92417      4.34512        -0.239079      0.270249     -0.453523
Pb      11.39410      3.80067     17.39582         0.258870      0.410349      0.222753
Pb      11.55859      0.07565      4.40828         0.009009     -0.531617     -0.688078
Pb      11.60473      0.05951     17.41779         0.029324     -0.502160      0.307051
Pb      11.63774      3.66610      8.68226        -0.506543      0.817641     -0.150531
Pb      11.52294      0.07870      8.70858         0.112168     -0.614664     -0.002423
Pb      11.45123      3.85902     12.91170         0.119481      0.041732     -0.095937
Pb      11.46999     15.33988     13.13447         0.108615     -0.273063     -0.666072
Pb      11.53297      7.64657      4.43998        -0.482385     -0.547247     -0.889587
Pb      11.45264      7.73158     17.33743         0.002713     -0.324892      0.169660
Pb      11.51781      7.64817      8.68707         0.000059     -0.542402     -0.553194
Pb      11.59743      7.63458     13.11893        -0.473116     -0.074112     -0.563376
Pb      11.42894     11.56164      4.33456         0.314187      0.240790     -0.594901
Pb      11.56586     11.53154     17.41507         0.227876      0.027492     -0.497828
Pb      11.44074     11.52652      8.70282        -0.060748      0.013078     -0.352198
Pb      11.47954     11.58287     13.11331        -0.342364      0.087707     -0.383847
Ti       1.79300      1.90998      2.38351        -0.024846     -0.045213     -0.489837
Ti       1.82530      1.91039     15.31823         0.738535     -0.189560      0.413995
Ti       1.88669     13.42808      2.41838        -0.468175     -0.782895      1.115706
Ti       1.83345     13.39479     15.25785         0.599737      0.547018      1.029888
Ti      13.31690      1.87604      2.31546         1.077651      0.068893     -0.229999
Ti      13.19906      1.86847     15.39771         2.757703      0.036334      0.457820
Ti      13.40802     13.36599      2.34352         0.420505      0.450444      0.252856
Ti      13.49403     13.41532     15.41702        -0.107092     -0.384600      1.488109
Ti       1.86597      1.83009      6.46654         0.158385      0.422127      0.768610
Ti       1.95711     13.36352      6.49052        -0.457658      0.662790      2.277137
Ti      13.41199      1.89784      6.60514         0.931980     -0.084075      0.425994
Ti      13.28527     13.41956      6.66881         1.943338     -0.063670     -0.994050
Ti       1.82021      1.84277     11.08288         0.906954      1.043445      0.596221
Ti       1.89317     13.44389     11.14345        -0.349131      0.009151     -1.157321
Ti      13.34976      1.89761     10.99225         0.830970     -0.921404      2.134817
Ti      13.36706     13.40734     10.98219         0.260637      0.404218      1.157088
Ti       1.86785      5.74834      2.33397         0.042564     -0.729448      0.442709
Ti       1.80748      5.71947     15.39484         0.364159     -0.132728     -0.300119
Ti      13.34626      5.66684      2.12113        -0.100523      0.009046      1.168712
Ti      13.35339      5.76955     15.34940         0.410523     -0.180659      0.690142
Ti       1.92010      5.58866      6.49756        -0.706455      1.519934      2.397586
Ti      13.41206      5.72937      6.72151         0.328101      0.012919     -0.267599
Ti       1.91844      5.78517     11.02388         0.076137     -1.686730     -0.215203
Ti      13.39675      5.76673     10.94676         0.002888     -0.542630     -0.307238
Ti       1.90899      9.57937      2.33085         0.553739     -0.274038      2.136183
Ti       1.90737      9.59396     15.37911        -0.110529     -0.260584      2.618137
Ti      13.39379      9.46401      2.37838         0.197902      0.836228      0.017110
Ti      13.51325      9.55830     15.37908         0.053091      1.059886      1.786188
Ti       1.80756      9.59310      6.68837         1.062128     -0.892981     -0.586992
Ti      13.35233      9.60710      6.62911         0.714939     -0.647355      0.318397
Ti       1.85855      9.63634     11.01437         0.345773     -0.899613     -0.211001
Ti      13.27444      9.53803     10.95195         1.277760      0.755523      0.388144
Ti       5.61230      1.89171      2.27095         1.418864     -0.194338     -0.119569
Ti       5.68424      1.94350     15.37252         0.323267     -0.163187      0.133819
Ti       5.66058     13.36857      2.14063         0.708515      0.530204      0.747448
Ti       5.71215     13.34601     15.45546        -0.592905      1.284732      0.336334
Ti       5.64587      1.88093      6.55921         0.543551     -0.115381      1.527756
Ti       5.74581     13.43972      6.70571         0.477718     -0.281419      0.282822
Ti       5.64859      1.82637     11.00636         0.156450      0.245077      1.126339
Ti       5.73676     13.36735     10.96409        -0.384058      0.545543      1.685536
Ti       5.75908      5.82516      2.23611        -0.695788     -1.227936      2.540307
Ti       5.70787      5.70543     15.38473         0.768554      0.392380      0.037308
Ti       5.73367      5.76010      6.58387        -0.527421     -1.001322      1.240693
Ti       5.71836      5.68098     10.97634         0.342849      0.705835      1.916980
Ti       5.80558      9.52351      2.29483        -1.591933      0.828237     -0.231530
Ti       5.74306      9.64733     15.33084         0.285715     -1.533447      0.294111
Ti       5.81143      9.57627      6.74012        -0.736168     -0.014324      1.467185
Ti       5.70118      9.56095     10.95343         1.177632     -0.254896      1.472666
Ti       9.51520      1.93331      2.44011        -0.398832      0.252982      0.272957
Ti       9.61567      1.88371     15.26216        -2.618206     -0.615419      0.832103
Ti       9.56978     13.51589      2.24377         0.044325     -0.396423      0.658136
Ti       9.60035     13.36493     15.44825         0.037914      0.437002      0.449901
Ti       9.55025      1.79845      6.64761        -1.034845      1.017134     -0.308301
Ti       9.56672     13.46619      6.64762        -1.093709     -1.386291      1.119050
Ti       9.58129      1.86654     11.01643        -0.949146      0.209731      1.395089
Ti       9.55275     13.43833     10.93640         0.706486     -1.267262      1.187895
Ti       9.56265      5.75775      2.26570         0.576339      0.447072     -0.002685
Ti       9.57834      5.63390     15.24628        -0.438874      1.272979      0.484528
Ti       9.51673      5.67224      6.69503         0.863824      0.194184     -0.667413
Ti       9.49240      5.69732     11.03308         0.114916      0.953782     -0.066546
Ti       9.59932      9.66437      2.29732         0.383285     -1.302660      1.244047
Ti       9.69162      9.53300     15.31899        -1.390142      0.729013      1.877770
Ti       9.62700      9.53990      6.55442        -1.384369      1.010990      1.019131
Ti       9.61663      9.56163     10.94018        -1.794491      0.037944      2.311379
O       1.83052      1.92294      0.61326         0.147697      0.072586     -0.759468
O       1.79614      1.92932     13.56872        -0.291384     -0.192575     -0.224294
O       1.82147     13.35674      0.70111         0.175873     -0.305968     -1.599158
O       1.70169     13.45449     13.51946         0.413294     -0.396573     -1.216290
O      13.31353      1.89684      0.53792        -0.373634     -0.177547     -0.647127
O      13.13574      1.76419     13.69010         0.335591      0.080608     -1.748415
O      13.54707     13.43951      0.60405        -0.377909     -0.248469     -0.951336
O      13.52085     13.26687     13.72395        -0.191854      0.619458     -2.629797
O       1.67202      1.83880      4.70294         0.477987     -0.052677     -0.039747
O       1.97540     13.31644      4.80091        -0.113264      0.291967     -1.904578
O      13.42633      1.94942      4.84961        -0.053371     -0.234939     -0.181660
O      13.25871     13.42670      4.89690        -0.121431      0.242502      0.128603
O       1.90740      1.97292      9.34721        -0.137296     -0.331939     -1.270977
O       1.76123     13.41178      9.31677         0.316307     -0.142550      0.348913
O      13.26319      1.86299      9.29080         0.071916      0.025566     -2.214677
O      13.35446     13.27900      9.26138         0.051349      0.108927     -1.784943
O       1.89149      5.76679      0.59200        -0.213158      0.047239     -1.633800
O       1.65269      5.67112     13.64412         0.405160      0.290190     -0.397950
O      13.33484      5.61188      0.39121         0.012161      0.402270     -0.988700
O      13.38378      5.98092     13.58548         0.072547     -0.740552     -0.397104
O       1.81020      5.61305      4.80191         0.090196      0.245622     -2.043137
O      13.29518      5.69820      4.92787         0.167195      0.049261     -0.049810
O       1.87650      5.65572      9.25604         0.249451     -0.108316     -0.222553
O      13.48181      5.70046      9.19510        -0.566053      0.192443     -0.560176
O       1.86808      9.59062      0.59530         0.152627     -0.193464     -1.590063
O       1.91731      9.56255     13.72196         0.116218      0.029896     -3.816303
O      13.54578      9.48087      0.66343        -0.222025      0.418880     -1.188520
O      13.41614      9.49097     13.67773        -0.065995      0.105557     -2.437865
O       1.93882      9.62375      4.93915        -0.190043     -0.222755     -0.150596
O      13.33872      9.39317      4.87042         0.047215      0.199631     -0.895426
O       1.90148      9.49867      9.23060        -0.230526      0.563832      0.476954
O      13.37925      9.57309      9.22015        -0.250329     -0.123951     -0.709445
O       5.83776      1.87550      0.50834        -0.748117      0.112549     -0.103306
O       5.60640      2.08452     13.57502         0.366899     -0.639540     -0.272084
O       5.63660     13.51492      0.36894        -0.089864      0.016017     -0.292649
O       5.80494     13.31887     13.68535        -0.024193     -0.046816     -0.377908
O       5.58150      1.90803      4.83114         0.297860     -0.173053     -0.906634
O       5.74993     13.53333      4.97388        -0.010937     -0.466962     -1.305516
O       5.66651      1.61157      9.25703        -0.084738      0.671373      0.086180
O       5.69181     13.38270      9.26495         0.051252      0.323200     -2.049394
O       5.80703      5.76472      0.53683         0.160532      0.289583     -2.080135
O       5.82302      5.65990     13.63037        -0.436756     -0.137962     -0.280776
O       5.88614      5.73331      4.87673        -0.724523      0.184358     -1.380578
O       5.70790      5.74581      9.27238        -0.008316     -0.397515     -2.070115
O       5.80343      9.51262      0.54028         0.004252     -0.520494     -0.293433
O       5.72189      9.49247     13.57461        -0.170442      0.969460     -0.432970
O       5.70656      9.55575      5.02752        -0.102522     -0.002446     -2.045118
O       5.70291      9.69980      9.23053        -0.059980     -0.450334     -1.398072
O       9.73087      2.06640      0.71225        -0.410762     -0.425072     -1.100322
O       9.57580      1.65665     13.54723         0.315427      0.608237     -1.119781
O       9.64140     13.44522      0.47993        -0.238600      0.072732     -0.508122
O       9.51959     13.47527     13.71524        -0.162241     -0.249028     -1.150542
O       9.34468      1.84839      4.89472         0.812552     -0.357660      0.163938
O       9.48358     13.50151      4.92884         0.211219      0.184234     -1.546674
O       9.50828      1.77681      9.28567         0.564632      0.294697     -1.142971
O       9.71260     13.14931      9.19250        -0.518652      0.547859      0.003074
O       9.70460      5.68920      0.48540        -0.631184      0.033133     -0.043945
O       9.60385      5.68689     13.46632        -0.112942      0.418917      0.063438
O       9.58730      5.75163      4.93650        -0.143317     -0.289093      0.064484
O       9.41892      5.75760      9.24497         0.088889      0.059812     -1.060347
O       9.60335      9.54842      0.57515        -0.199815      0.399139     -0.917603
O       9.64667      9.52613     13.62728         0.048717     -0.059802     -1.970458
O       9.53109      9.61138      4.79629         0.257597     -0.161244     -0.376784
O       9.47638      9.62630      9.21782         0.498867      0.000518     -1.359313
O       3.73372      1.79994      2.73377         0.049732      0.603683      0.094526
O       3.82985      2.06051     15.67543        -1.098418     -0.319454      0.641613
O       3.82857     13.43451      2.69266        -0.654407     -0.070487      0.192136
O       3.72114     13.40167     15.68838         0.858770     -0.216628      0.410008
O      15.23906      2.01506      2.62299         0.106140     -0.402990      0.555605
O      15.25668      1.84912     15.81180         0.806876      0.532619     -0.296187
O      15.27928     13.25364      2.86986         0.089798      0.363613      0.033872
O       0.03747     13.55995     15.73280        -0.249583     -0.378032      0.535437
O       3.77150      1.80953      6.94588        -0.105340      0.201490      0.241251
O       3.82437     13.37866      6.98801        -0.056602      0.503159      0.467010
O       0.03423      1.80553      7.00734        -0.916947      0.295129      0.241420
O      15.33247     13.34217      6.93607         0.059135      0.263254      0.549355
O       3.70118      1.86590     11.48243         1.552489     -0.410103     -0.060118
O       3.81999     13.41207     11.42104        -0.207352     -0.226773      0.310169
O      15.30800      1.89863     11.35249        -1.418782     -0.195340      0.469361
O      15.30483     13.49647     11.35128        -1.300491     -0.766961      0.503676
O       3.72253      5.83771      2.59030         1.744626     -0.437833      0.586815
O       3.85280      5.71341     15.83669        -0.158070      0.447415     -0.118701
O      15.19610      5.68555      2.60765         0.586997     -0.141735      0.377262
O      15.28959      5.68506     15.81603        -0.244085      0.032996      0.092377
O       3.80301      5.56528      6.94240         0.072916      0.362138      0.131747
O      15.32644      5.64652      6.94744         0.033141      0.034318      0.284980
O       3.88055      5.59135     11.36767        -1.148919      0.516799      0.410508
O      15.29648      5.82436     11.20965        -0.042448     -0.399438      1.070701
O       3.84154      9.57436      2.70291         0.059606     -0.704331      0.375547
O       3.79076      9.64127     15.79255         0.733999     -0.641495      0.347527
O       0.06730      9.56485      2.76831        -2.092094     -0.288053      0.318869
O       0.06739      9.59708     15.80755        -0.952527     -0.206989      0.309892
O       3.70169      9.57716      7.11186         1.149789     -0.348984      0.434605
O      15.26002      9.58317      7.06538         0.618697      0.129888      0.110179
O       3.82643      9.64108     11.45719        -0.766982      0.250503      0.119793
O      15.33487      9.49898     11.39267        -0.095391      0.234383     -0.147659
O       7.52021      1.96641      2.68277         0.459838     -0.191123      0.193814
O       7.59585      1.89432     15.70747         1.636554      0.176608      0.314987
O       7.56090     13.46029      2.58876         0.009483     -0.271197      0.195494
O       7.61345     13.43441     15.85109        -0.087632     -0.001903      0.142041
O       7.63504      1.90867      7.12580         0.227036     -0.694413      0.003150
O       7.69385     13.36701      7.02103        -0.792060      0.408474      0.672826
O       7.69395      1.93716     11.42568        -0.652602     -0.461870     -0.173912
O       7.66814     13.26053     11.36119         0.436986      0.806370      0.098830
O       7.66012      5.84556      2.77465        -0.711250     -0.431887     -0.662610
O       7.74442      5.73212     15.79056        -0.254155     -0.062472      0.141041
O       7.58410      5.64416      7.01407         0.923534     -0.138587      0.653973
O       7.60166      5.65754     11.31192        -0.321025     -0.074323      0.640827
O       7.62607      9.60839      2.73954         0.256614     -0.050462      0.176239
O       7.68785      9.68315     15.72663        -0.646955     -0.162690      0.171411
O       7.63903      9.55899      6.93386         0.386174     -0.056698      0.494809
O       7.68686      9.53642     11.36049        -0.737598      0.702228      0.294334
O      11.50069      1.81265      2.83770        -1.607736      0.401447      0.249458
O      11.41019      1.86001     15.82245        -0.364198     -0.223213      0.422267
O      11.46405     13.51216      2.60485        -0.975945     -0.018542      0.556818
O      11.51398     13.30683     15.64425         0.032619      0.351212      0.732907
O      11.52123      1.70774      7.02100        -0.596435      0.936321     -0.033013
O      11.48738     13.39723      7.04101        -0.463153     -0.213629      0.485631
O      11.47161      1.99505     11.48502        -0.716235     -0.829905     -0.286913
O      11.42929     13.38208     11.45572         0.391076      0.034075      0.146290
O      11.44313      5.68120      2.65541         0.317695      0.098600      0.496838
O      11.47647      5.85921     15.72431         0.298856     -0.163965     -0.299422
O      11.47030      5.83095      6.97445        -0.300595     -0.324151      0.910317
O      11.43674      5.77059     11.19960         0.836847      0.093670      0.732365
O      11.46136      9.49948      2.65156        -0.288734      0.288746      0.411551
O      11.52781      9.65340     15.78632         0.542449     -0.013448      0.286765
O      11.48415      9.48848      7.04618        -0.563131      0.057489      0.009177
O      11.45713      9.40605     11.36922         0.262171      0.305463     -0.019198
O       1.94212      3.79834      2.70099        -0.273791      0.288706      0.437879
O       2.03021      3.83292     15.69519        -1.186105     -0.105806      0.673418
O       1.79072     15.29703      2.57209        -0.311805      0.209115      1.015422
O       1.96590     15.34004     15.62703        -0.152220      0.644136      0.572008
O      13.25797      3.79293      2.54245        -0.029778      0.408747      0.695177
O      13.34208      3.74553     15.64810        -0.067372      1.416313      0.122948
O      13.35922     15.34623      2.67053         0.446165     -0.344497      0.738009
O      13.43366     15.31633     15.80569        -0.819022      0.230408      0.258912
O       1.86222      3.74428      6.83054        -0.021113     -0.687157      0.683450
O       1.92105     15.33242      6.92687        -0.308257     -0.699980      0.278951
O      13.39343      3.77572      7.09664        -0.356166     -0.390491      0.031412
O      13.41728      0.01201      7.01788         0.113983     -0.892736      0.277639
O       1.82553      3.80752     11.49436        -0.357003      0.466708      0.089299
O       1.76383     15.26969     11.39902         0.453204      0.996857      0.375528
O      13.31663      3.75226     11.29110         0.389264      1.767690      0.534354
O      13.25596     15.31427     11.31934         0.229452      0.076487      0.406935
O       1.84116      7.55578      2.80641        -0.306829      1.626785      0.141201
O       1.88080      7.61986     15.74455         0.296847      0.165104      0.591146
O      13.38958      7.59701      2.58796        -0.144802     -0.395187      0.776254
O      13.47090      7.75082     15.67959        -0.218956     -1.927426      0.821212
O       1.90230      7.58646      6.92860        -0.169503      0.145707      0.471487
O      13.46055      7.64653      7.05795        -0.251988     -0.191392      0.405136
O       2.01137      7.59080     11.36648        -0.077018      1.616681      0.457904
O      13.38762      7.67737     11.35181        -0.051946     -0.399071      0.211137
O       1.85795     11.38268      2.86234         0.542441      1.007266     -0.374085
O       1.88485     11.53040     15.82682        -0.230933     -0.044247     -0.020727
O      13.16472     11.47397      2.65500         0.682695     -0.371763      0.535181
O      13.56916     11.51239     15.71030        -0.256467     -0.464802      1.109711
O       2.03113     11.52912      6.96250        -1.081175     -0.398935      0.603649
O      13.42354     11.43643      6.79878        -0.563939      0.908124      0.799496
O       1.77717     11.48266     11.54533         0.572140     -0.253047     -0.435554
O      13.33957     11.48246     11.36293         0.049252     -0.628168      0.439328
O       5.60958      3.86426      2.69211         0.132678      0.322454     -0.176408
O       5.81746      3.82647     15.82969        -0.109145      0.872575      0.463141
O       5.58066     15.34088      2.59941         0.448880     -0.249550      0.315544
O       5.52772      0.06297     15.61950         0.465572     -1.406830      0.315428
O       5.68658      3.71648      7.03899         0.228127      0.646381      0.257558
O       5.75280     15.33950      6.99752        -0.048379      0.007965      0.534654
O       5.69004      3.72753     11.45561         0.225705      0.044599     -0.600271
O       5.76256     15.31755     11.53875         0.064716     -0.077130     -0.048741
O       5.64640      7.61835      2.75989         0.521660      1.155194     -0.100728
O       5.83041      7.68849     15.51345        -0.418966     -0.125205      1.497474
O       5.69629      7.53868      7.05394        -0.129982      1.478513      0.256968
O       5.66782      7.68794     11.36194        -0.027815     -0.468977      0.088498
O       5.54322     11.50302      2.42913         0.955600     -0.457168      0.814380
O       5.60620     11.46962     15.87541         0.665695      0.630524     -0.157690
O       5.67719     11.49024      7.02715         0.130871     -0.195551      0.372046
O       5.80879     11.54876     11.33423        -0.600107     -1.243003      0.646775
O       9.43525      3.84275      2.72639         0.518006      0.114108      0.343861
O       9.68583      3.80797     15.53956        -0.096101     -0.359368      0.449821
O       9.37128      0.01692      2.63794         0.463915     -0.349772      0.181265
O       9.52803      0.02315     15.67897         0.283558     -0.618510      1.030516
O       9.57948      3.71204      7.04363         0.334800      0.485435      0.295328
O       9.58135     15.27880      7.18246        -0.078566      0.893085     -0.037978
O       9.54894      3.84701     11.36204         0.318455     -1.200380      0.313533
O       9.52745     15.29248     11.32307         0.128223     -0.062417      0.055368
O       9.57937      7.62486      2.62281        -0.362264      0.837330      0.347186
O       9.55167      7.69729     15.72115         0.175289     -0.544069      0.182989
O       9.41866      7.65732      6.90060         0.365105     -0.161409      0.708581
O       9.35226      7.62581     11.37930         1.042435      0.300703     -0.085871
O       9.49430     11.58629      2.75058         0.315021     -0.446012     -0.143302
O       9.52887     11.50234     15.78333         0.307110     -0.209302      0.279976
O       9.43657     11.49541      6.89352         1.125004     -0.800446      0.508807
O       9.67831     11.46015     11.56067        -0.379824     -0.162717     -0.625925
