  # total energy = -7881.57172840 
CRSYTAL
PRIMVEC
    15.3600000000000000    0.0000000000000000    0.0000000000000000
     0.0000000000000000   15.3600000000000000    0.0000000000000000
     0.0000000000000000    0.0000000000000000    17.440000000000000
PRESSURE
2.03138 2.20598 -0.100571 0.070592 0.274632 -0.005374
PRIMCOORD
320 1
Pb       3.85149      3.75013      4.28752        -0.255248      0.178996      1.149750
Pb       3.74716      3.77424     17.41144         0.047692      0.093058      0.273713
Pb       3.78611     15.27611      4.31790         0.078451      0.409465      1.091141
Pb       3.70020     15.26423     17.30342         0.705873      0.283725      0.650380
Pb       0.04318      3.73952      4.24466         0.374815      0.526468      0.972549
Pb       0.01599      3.83269     17.36128         0.505619      0.180435      0.921424
Pb       0.01765     15.34964      4.27433         0.061280     -0.377823      1.049839
Pb       0.00951     15.29710     17.36677        -0.107436      0.497508      0.681919
Pb       3.76361      3.77917      8.74419         0.505887      0.262850     -0.032481
Pb       3.84541      0.03556      8.52556        -0.032711     -0.097598      1.419688
Pb       0.03447      3.91358      8.71512        -0.561866     -0.099552     -0.042871
Pb      15.23498     15.34130      8.70836         0.681324      0.173263      0.681687
Pb       3.79359      3.81312     13.01953         0.067351     -0.106174      0.260534
Pb       3.78479      0.08208     12.94423         0.480688     -0.625637      0.847780
Pb       0.03436      3.81310     13.03536         0.190686     -0.066859      0.685296
Pb      15.31026     15.27882     13.05931         0.574612      0.183343      0.139124
Pb       3.81107      7.65053      4.34475         0.007484      0.017317     -0.235275
Pb       3.83922      7.57263     17.31707        -0.373084      0.209743      0.786250
Pb      15.33461      7.78161      4.28967         0.341398     -0.261577      0.423315
Pb      15.25291      7.55832     17.40680         0.184658      0.295965      0.016476
Pb       3.75092      7.73578      8.63769         0.453270      0.200603      0.659109
Pb      15.35815      7.69219      8.64461        -0.133942      0.185790      0.477321
Pb       3.83524      7.59959     12.93937        -0.066696      0.616747      0.748727
Pb      15.29565      7.57808     13.04992         0.345258      0.480672      0.826292
Pb       3.89712     11.53211      4.33137        -0.442169     -0.539424      0.710923
Pb       3.74183     11.61995     17.35844         0.629599     -0.818721      0.483227
Pb      15.23393     11.47208      4.38551         0.332848      0.046641      0.005212
Pb      15.29758     11.55524     17.33838        -0.045754     -0.927107      0.903835
Pb       3.89566     11.48256      8.65824        -0.463953     -0.020045      0.566333
Pb      15.27936     11.52415      8.71290         0.238488      0.100501      0.095472
Pb       3.81120     11.44385     13.00848        -0.095064      0.222844      0.218994
Pb       0.06626     11.52323     12.97987        -0.050851     -0.169957      0.605510
Pb       7.67943      3.74740      4.27127         0.047978      0.841454      0.427705
Pb       7.54982      3.76716      0.03404         0.322941      0.362832      0.651039
Pb       7.70142     15.23850      4.38039        -0.347342      0.248341      0.312022
Pb       7.69439      0.00249     17.41113         0.054325     -0.685987     -0.008984
Pb       7.65727      3.87496      8.59583        -0.268304     -0.171070      0.780873
Pb       7.63517      0.03557      8.69236         0.197947      0.028195      0.358725
Pb       7.75474      3.89870     12.94657        -0.317382     -0.548782      0.860815
Pb       7.58886      0.06600     12.97524        -0.237552      0.130439      0.633202
Pb       7.76137      7.64462      4.34512        -0.507094     -0.151624      0.245080
Pb       7.54887      7.74902     17.37002        -0.021326      0.036735      0.451866
Pb       7.74948      7.59962      8.66382        -0.603930      0.280191      0.989622
Pb       7.69737      7.72209     13.01593        -0.200783     -0.251189      0.228671
Pb       7.66360     11.50096      4.32213         0.270427     -0.447576      0.616676
Pb       7.65565     11.45126     17.39516        -0.632575      0.338679      0.347645
Pb       7.62752     11.58976      8.61500         0.109431     -0.253721      1.234577
Pb       7.61807     11.46044     12.93228         0.010385      0.168425      0.837186
Pb      11.42543      3.83720      4.23285        -0.006764     -0.170059      0.900732
Pb      11.59470      3.82020     17.42792        -0.356985      0.115399      0.652640
Pb      11.54376     15.22502      4.38521         0.111919      0.624049      0.176040
Pb      11.40240     15.30666      0.09218         0.190426     -0.014820     -0.193315
Pb      11.38508      3.81484      8.63503         1.033921      0.119082      0.320554
Pb      11.49823      0.06844      8.68700        -0.312834     -0.224870      0.311422
Pb      11.58308      3.76405     13.03758        -0.579412     -0.092522      0.936902
Pb      11.57386     15.35967     12.98986        -0.548468     -0.032652      0.995124
Pb      11.46423      7.61388      4.27139         0.095281      0.404505      1.144954
Pb      11.52312      7.70105     17.38819        -0.120248     -0.064190      0.434305
Pb      11.52933      7.71003      8.64155        -0.096502     -0.238116      0.576895
Pb      11.48352      7.58749     13.10563         0.611472      0.434758      0.930671
Pb      11.53108     11.52922      4.20379        -0.612404     -0.095392      1.210969
Pb      11.42612     11.45648     17.38515        -0.163983      0.386559      1.017099
Pb      11.58435     11.50252      8.54499         0.071548      0.541166      1.457059
Pb      11.57258     11.50452     13.05057        -0.153275     -0.111809      0.082946
Ti       2.02215      1.84042      2.33350        -0.705667      0.502615     -2.098715
Ti       1.89945      1.90114     15.41574         1.083755      0.181042     -0.988262
Ti       1.93549     13.37533      2.33711        -0.973148     -0.122055     -0.428493
Ti       1.83436     13.39790     15.37584         1.062743      0.024587      1.012417
Ti      13.51183      1.96693      2.39155        -0.596668     -1.585551     -0.006450
Ti      13.46881      1.86905     15.38667        -0.403893      0.267960      0.927617
Ti      13.50523     13.49321      2.30666        -0.918225      0.143012     -0.029865
Ti      13.35474     13.41172     15.49635        -0.650692     -0.022275     -1.074450
Ti       1.87933      1.95187      6.78266         0.401509     -0.249116      0.053352
Ti       1.89222     13.45468      6.74585        -0.701938      0.495353     -0.051821
Ti      13.44276      1.91640      6.63595        -0.113281      0.696116      1.340882
Ti      13.36937     13.49353      6.73812         0.892258     -0.670723     -0.875965
Ti       1.91467      1.89034     10.99905        -0.093185     -0.029162     -0.513570
Ti       1.91123     13.42464     10.96858         0.179391      0.171354     -0.292771
Ti      13.53655      1.91077     11.01845        -1.344461     -0.141972      1.807522
Ti      13.39106     13.42838     11.11321         0.688709     -0.437140     -0.830864
Ti       1.90213      5.71994      2.38775        -0.136816      0.461097     -1.771485
Ti       1.93224      5.75639     15.38536        -0.146642     -0.381083     -0.702171
Ti      13.38510      5.78875      2.45382         0.718759     -0.187062     -1.056217
Ti      13.33869      5.67467     15.44288         0.608623      1.054402     -0.011295
Ti       1.91195      5.82863      6.80165        -0.399604     -1.018614     -1.877108
Ti      13.41371      5.76089      6.60203        -0.320772     -0.040709      0.352973
Ti       1.92544      5.75043     11.07003        -0.821035      0.426281     -0.681407
Ti      13.46850      5.67034     11.12310        -0.294403      0.813717      1.563450
Ti       1.96769      9.62978      2.28072        -0.908342     -0.689469     -0.271072
Ti       1.83063      9.55363     15.41439        -0.261578      0.453533     -1.763365
Ti      13.36670      9.66880      2.30861         0.950756     -0.766177     -1.179329
Ti      13.37635      9.59385     15.41146         0.415387     -0.992414     -0.320974
Ti       1.92907      9.66691      6.62583        -0.848391      0.286918     -0.173371
Ti      13.43109      9.57434      6.71238         0.466011      0.604328     -0.889559
Ti       1.85332      9.54924     11.06629         0.944071      0.463539     -0.753593
Ti      13.47959      9.54111     11.13482        -0.921274      0.438920      0.088786
Ti       5.79906      1.84748      2.40730         0.481534      0.258336     -0.814637
Ti       5.81736      1.86284     15.51808        -1.085491     -0.334103     -0.510400
Ti       5.68702     13.42401      2.43004         1.380223     -0.717292     -0.504371
Ti       5.80415     13.39029     15.36153        -0.858922      0.112420     -0.731372
Ti       5.80178      1.96350      6.69677        -0.698708     -0.213920      0.303191
Ti       5.71347     13.41572      6.74534        -0.039751      0.317325     -1.294491
Ti       5.73095      1.99328     10.95082         0.945248     -0.454530     -0.483725
Ti       5.74247     13.47300     11.03822        -1.204904     -0.094294     -0.452239
Ti       5.66944      5.71053      2.33978         0.377244      0.496092     -0.456290
Ti       5.76511      5.64733     15.35204        -1.103943      0.987695     -0.172227
Ti       5.70426      5.77629      6.65549         0.162793     -0.409588     -0.476402
Ti       5.73388      5.75902     11.07532         0.779737     -0.001485     -1.303696
Ti       5.75569      9.60279      2.40988        -0.023069     -1.045449     -0.846561
Ti       5.60700      9.56148     15.38271         0.702658      0.220000     -0.995494
Ti       5.79697      9.53424      6.69492        -0.178602      0.881194     -0.997476
Ti       5.76338      9.59172     11.02650        -0.841639     -0.242592     -0.594030
Ti       9.65258      1.82798      2.34587         0.414973      0.152262     -0.235155
Ti       9.63623      1.98984     15.53389         0.231713     -1.162346     -0.084335
Ti       9.57143     13.39297      2.41570        -0.077740     -0.521637     -0.618718
Ti       9.61744     13.38564     15.31304        -0.490423      1.280743      1.678219
Ti       9.59802      1.92600      6.62131         0.493101     -0.528050      1.342827
Ti       9.52809     13.44759      6.73846         0.915517      0.443413     -0.147236
Ti       9.64143      1.88771     11.04473        -0.559699      0.041026     -0.583228
Ti       9.54624     13.47060     11.07362         0.244243      0.279831     -1.045004
Ti       9.54911      5.73836      2.29475        -0.419733     -0.279388      1.680966
Ti       9.48281      5.75978     15.55753         0.906464     -0.416292     -0.509434
Ti       9.55443      5.76121      6.76369         0.871659      0.096905     -2.844840
Ti       9.65955      5.74312     11.12956        -0.243101      0.067418     -0.714545
Ti       9.57095      9.50574      2.29818        -0.352647      0.637117      0.344617
Ti       9.54340      9.61207     15.41100        -0.143468     -0.504818     -0.319478
Ti       9.53358      9.64838      6.78225         0.410106     -0.206127     -1.049119
Ti       9.60952      9.60761     11.10829         0.687148     -0.388210      0.161088
O       2.02901      1.80873      0.46447        -0.417169      0.136515      2.815014
O       1.80372      1.90217     13.59010         0.563600      0.068092      0.905894
O       1.97519     13.39035      0.53324        -0.322036      0.105840      1.286128
O       1.89241     13.39393     13.66152        -0.183549      0.080635     -0.254121
O      13.72252      1.87159      0.66682        -0.718913      0.104205     -0.077901
O      13.42509      1.96334     13.62424         0.301764     -0.417813      1.451823
O      13.37755     13.50039      0.52887         0.327823     -0.132884      0.746633
O      13.31667     13.41652     13.65418         0.180724      0.081377      1.560188
O       1.92915      1.97833      5.02641        -0.035106     -0.090550     -0.332456
O       1.84800     13.48887      4.95987         0.132159     -0.129957      0.603599
O      13.38626      1.86265      4.90900         0.342890      0.272159     -0.064633
O      13.46495     13.41462      4.95241        -0.132793      0.258529      0.817122
O       2.00130      1.87843      9.21279        -0.334627      0.205647      1.343272
O       1.96594     13.51176      9.19527        -0.139163     -0.288271      0.990035
O      13.45923      1.81354      9.33166        -0.209098      0.374275     -1.192293
O      13.47031     13.37238      9.33383        -0.285609      0.270834      0.669800
O       1.86476      5.69787      0.51003         0.323339      0.407795      1.899544
O       1.96022      5.77109     13.56169         0.226064     -0.293984      1.219517
O      13.49547      5.68144      0.63891        -0.193877      0.401152      1.344747
O      13.38466      5.63032     13.70305         0.077113      0.082028     -0.205742
O       1.95461      5.71810      5.00714        -0.140108      0.186563      1.445800
O      13.37739      5.79354      4.84682         0.189795     -0.233819     -0.081789
O       1.74479      5.89085      9.27315         0.572572     -0.298491      0.442905
O      13.51689      5.69559      9.44824        -0.300372      0.122836     -1.562987
O       1.80616      9.51229      0.49660         0.382388      0.262172      1.027915
O       1.76304      9.58802     13.54229         0.414061      0.232029      2.165194
O      13.37795      9.56464      0.49166        -0.056501      0.132687      1.825064
O      13.41020      9.43118     13.63288        -0.092342      0.859089      0.884044
O       1.72639      9.51500      4.84722         0.675071      0.715467      1.482909
O      13.51197      9.62991      4.93487        -0.264675     -0.056529      0.253644
O       1.94072      9.58993      9.25640        -0.141175     -0.188440      0.942920
O      13.46426      9.76444      9.38656        -0.066614     -0.654181      0.094328
O       5.92071      1.88199      0.61963        -0.417564     -0.147306      0.818687
O       5.74078      1.84397     13.76656         0.166115      0.011190      0.227501
O       5.77259     13.25114      0.68866        -0.227849      0.408628      0.500145
O       5.59276     13.51033     13.57849         0.659234     -0.273708      0.817083
O       5.75219      1.91897      4.94371         0.121621      0.029062     -0.170042
O       5.75760     13.44078      4.90769        -0.403232     -0.203476      1.485682
O       5.89758      1.98227      9.16834        -0.402003      0.206133      1.132257
O       5.81278     13.42391      9.23681        -0.323032     -0.175834      0.937169
O       5.59002      5.55226      0.53142         0.300151      0.764655      1.986764
O       5.76847      5.86150     13.56506        -0.053134     -0.686038      0.554211
O       5.79484      5.72380      4.87157        -0.432477      0.099010      1.220400
O       5.84364      5.84042      9.29610        -0.242482     -0.443152      0.656913
O       5.71377      9.70092      0.63094         0.140093     -0.474984      0.502511
O       5.67686      9.52307     13.56688         0.188384      0.075858      1.080332
O       5.89847      9.51825      4.90362        -0.493686      0.305096      0.858514
O       5.69253      9.59742      9.23053         0.069868      0.006825      1.169418
O       9.80697      1.79247      0.57853        -1.130840      0.005842      0.460206
O       9.62194      2.04451     13.80148        -0.253062     -0.217728     -0.275905
O       9.63442     13.35970      0.65824        -0.410310      0.367083      0.619956
O       9.76538     13.40816     13.60498        -0.371983     -0.115427     -0.959543
O       9.66237      1.96277      4.90602        -0.207618     -0.075281     -0.848629
O       9.68113     13.24120      4.99757        -0.733375      0.812551      0.084587
O       9.66499      1.79095      9.23078        -0.066177      0.641813      1.549337
O       9.54980     13.73299      9.28636        -0.158169     -1.050439      1.440690
O       9.58674      5.74533      0.60889        -0.089752      0.243198     -1.568597
O       9.68577      5.66583     13.78853        -0.907301      0.290352      1.087926
O       9.56285      5.76468      4.89458         0.029617     -0.011130      2.055340
O       9.73524      5.74717      9.32308        -0.218713      0.024548      0.483962
O       9.52640      9.51252      0.54819        -0.093194      0.240071     -0.034335
O       9.54823      9.52999     13.62657        -0.197098      0.408273      1.197739
O       9.51032      9.68010      5.01802         0.215234     -0.496890      1.055025
O       9.58497      9.41049      9.37209         0.187189      0.399470     -0.218461
O       3.86529      1.80660      2.76167         0.014799      0.031068     -0.093953
O       3.79481      1.85504     15.95075         1.147164     -0.097493     -0.852225
O       3.78406     13.39325      2.91753         0.346335      0.125534     -0.831773
O       3.82937     13.35420     15.91717        -0.781528      0.405903     -1.019353
O       0.06794      1.86343      2.84329         0.047491      0.385686     -0.478255
O       0.14266      1.90781     15.98210        -2.736388     -0.091895     -0.934352
O      15.35055     13.39474      2.72666         0.516245      0.222943     -0.315915
O      15.27420     13.34504     15.88498        -0.219321      0.521896     -0.784458
O       3.87603      2.01218      7.23569         0.147015     -0.230095     -0.805329
O       3.81145     13.37537      7.16743         0.503049      0.198061     -0.688017
O       0.01919      1.91027      7.25498        -0.743693      0.149674     -0.872703
O      15.28926     13.56560      7.32724         0.527232     -0.726881     -1.367115
O       3.84558      1.94158     11.36190         0.019457      0.098853      0.184972
O       3.75110     13.35846     11.55747         0.829658      0.381319     -0.824390
O      15.33332      1.95337     11.46129         1.206364     -0.372121     -0.302215
O       0.00602     13.48915     11.47068        -0.069979      0.107820     -0.011014
O       3.76273      5.64648      2.88269         0.991278      1.001409     -0.554996
O       3.84554      5.70756     15.89373        -0.492572     -0.324794     -0.747098
O       0.08466      5.68530      2.90361        -1.027631      0.089165     -0.707597
O       0.06337      5.68578     15.82382        -0.387972      0.494646     -0.346591
O       3.81285      5.66783      7.14900         0.238070      0.925552     -0.088619
O      15.28158      5.76811      7.17810         1.117189      0.527659     -0.395559
O       3.78582      5.68364     11.36557         0.925842      0.472092      0.145459
O       0.05935      5.70292     11.60055        -1.034112      0.106620     -0.659051
O       3.82791      9.66122      2.84357        -0.327287     -0.368472     -0.336110
O       3.76468      9.57921     15.74730        -0.440142      0.467793      0.128607
O      15.28889      9.60529      2.76752        -0.022225      0.404013     -0.493782
O      15.23167      9.55380     15.86240         0.392101      0.361120     -0.287797
O       3.85393      9.66376      7.07760        -0.489445      0.020534     -0.488843
O      15.30244      9.64978      7.20715         0.770827     -0.324943     -0.585115
O       3.76312      9.61711     11.47091         0.860275     -0.329060     -0.351890
O       0.00006      9.50249     11.58610        -0.796519      0.154251     -0.749060
O       7.73465      1.96233      2.84155        -0.608887     -0.685252     -0.547022
O       7.74150      1.89962     16.02964        -0.716352     -0.381743     -0.683914
O       7.60428     13.39404      2.93707         0.511988     -0.072168     -0.752878
O       7.64887     13.41763     15.78522         0.869814     -0.006239     -0.238356
O       7.70300      1.99034      7.07027         0.292459     -0.171709     -0.313299
O       7.60212     13.50311      7.17473         1.143656     -0.215082     -0.567072
O       7.62006      1.97895     11.45819         0.441295     -0.151245     -0.031476
O       7.53076     13.42072     11.45481         2.021247     -0.099454      0.214605
O       7.65731      5.85210      2.81083        -0.279070     -0.916616     -0.941505
O       7.52196      5.73243     16.00806         1.512278      0.383738     -0.779536
O       7.63426      5.75551      7.08139         0.466244      0.146937      0.018348
O       7.77668      5.72966     11.44356        -0.586082      0.234985      0.140927
O       7.70895      9.47769      2.80154        -0.250927      0.218830     -0.461868
O       7.51732      9.61420     15.87388         1.026232     -0.649697     -0.455022
O       7.64271      9.54000      7.22195         1.014993      0.442048     -0.254274
O       7.66146      9.58709     11.43047        -0.012204     -0.364630      0.153113
O      11.51511      1.71448      2.69992         0.357492      0.547199      0.188939
O      11.53838      1.96905     15.98699         1.504383     -0.033231     -0.884950
O      11.45828     13.54239      2.86883         0.525888     -0.842145     -0.860027
O      11.41799     13.44095     16.04789         0.920259     -0.516368     -1.177881
O      11.54028      1.88778      7.14638         0.369818      0.666720     -0.439309
O      11.48609     13.38861      7.10820         0.322116      0.529131     -0.021550
O      11.48225      1.83359     11.52919         0.358902      0.329608     -0.788360
O      11.50966     13.52910     11.39155        -0.672673     -0.384680      0.095030
O      11.47700      5.76236      2.92444         0.784630     -0.193293     -1.378519
O      11.47274      5.76677     15.99155        -0.228598     -0.543396     -0.531289
O      11.48303      5.76558      7.04571         0.481293      0.155446      0.272813
O      11.44213      5.67645     11.73962         1.346848     -0.112089     -1.302914
O      11.48274      9.53187      2.78769         0.826361      0.425658     -0.477017
O      11.46142      9.63633     15.90381        -0.559149     -0.808556     -0.751695
O      11.52864      9.66537      7.23380        -0.405000     -0.599419     -0.798402
O      11.47190      9.67059     11.58083         0.786484     -0.160019     -0.540766
O       2.03712      3.80790      2.76241        -0.760414     -0.931192     -0.335119
O       2.00860      3.79636     15.81844        -0.393826      0.522151     -0.536561
O       1.90668     15.33565      2.80778         0.220900     -0.323600     -0.520579
O       1.82887     15.34278     15.79925         0.359645     -1.243643     -0.336211
O      13.38969      3.78603      2.78379         0.131329      0.679330     -0.085436
O      13.55385      3.87301     15.94799        -0.800033     -1.807211     -0.630959
O      13.46612     15.31855      2.92285         0.073169      0.126010     -0.830408
O      13.40677     15.34215     15.87053         0.318126      0.558517     -0.636399
O       1.94020      3.84249      7.29694        -0.536012      0.679112     -0.537894
O       2.00033      0.03342      7.15545        -0.319774     -0.168563     -0.602942
O      13.51316      3.95522      7.18175        -0.608228     -1.531472     -0.588276
O      13.42434      0.05327      7.14887        -0.085010     -0.278246     -0.467540
O       1.95210      3.83673     11.50413        -0.258529     -0.569305     -0.553998
O       1.98901      0.02023     11.52485        -0.875916      0.006508     -0.757249
O      13.48309      3.80536     11.57315        -0.429049     -0.350968     -0.720033
O      13.46955      0.00829     11.62883         0.011296     -0.124837     -0.920890
O       1.93162      7.71809      2.83954         0.085603     -0.539089     -0.728954
O       1.88663      7.72466     15.65214         0.089254     -1.279941      0.557219
O      13.49017      7.66664      2.75402        -0.519570      0.094475     -0.413678
O      13.35309      7.58034     15.83905         0.337297      0.738779      0.021917
O       1.92318      7.79260      7.11335        -0.073343     -0.996078     -0.205624
O      13.41887      7.71133      7.13418        -0.059132     -0.431695     -0.213049
O       1.90321      7.68498     11.49094        -0.000658     -0.774826     -0.391488
O      13.32684      7.60815     11.53260         0.413082      0.184273     -0.448194
O       1.90951     11.51254      2.76331         0.040051      0.170734     -0.264606
O       1.78148     11.51701     15.90515         0.379803     -0.303601     -0.732481
O      13.37490     11.61074      2.77895         0.121951     -1.062250     -0.689772
O      13.21042     11.49510     15.91706         1.170797      0.357593     -0.909690
O       1.86200     11.57493      7.08821        -0.038370     -0.746407     -0.276707
O      13.51129     11.54177      7.05649        -0.439988      0.168385      0.321263
O       1.84215     11.52875     11.44567        -0.123363     -0.211671     -0.337834
O      13.51264     11.49031     11.55209        -0.455164      0.444596     -0.108584
O       5.67117      3.77264      2.79914         0.704635      0.289379     -0.388233
O       5.82360      3.78905     15.84766        -0.512887     -0.496635     -0.393298
O       5.79568     15.31085      2.82888        -0.138504      0.270528     -0.257245
O       5.70243     15.24370     15.93324         0.593381      1.011461     -0.175807
O       5.77955      3.87311      7.17536         0.002880      0.233655     -0.530351
O       5.77153     15.35217      7.12800        -0.201443      0.297164     -0.588446
O       5.73540      3.86051     11.53156         0.000790     -0.297608     -0.435786
O       5.81984      0.01676     11.36054        -0.745417      0.392939      0.000180
O       5.69186      7.65165      2.75909        -0.389313     -0.581767     -0.337522
O       5.53776      7.59043     15.79013         1.265322      0.822029     -0.110502
O       5.74712      7.74724      7.04229        -0.326464     -1.982098      0.221409
O       5.82419      7.61786     11.42875        -0.476537      0.896629      0.011195
O       5.74879     11.43044      2.86131         0.003110      1.266073      0.004553
O       5.73594     11.50495     15.84926        -0.263334     -0.278197     -0.490745
O       5.83846     11.52662      7.21013        -0.457981     -0.099714     -0.851476
O       5.77830     11.45696     11.53103        -0.514060      0.294128     -0.719530
O       9.65063      3.81307      2.64051        -0.106314     -0.375103      0.206980
O       9.56370      3.85183     16.02301        -0.099410      0.463317     -0.225898
O       9.48657     15.26529      2.87260         0.080405      0.683956     -0.418344
O       9.68674     15.30296     15.81412        -0.634272      0.313791      0.085936
O       9.70783      3.83844      7.08414        -0.842948      0.095887     -0.078916
O       9.68042      0.04046      7.15717        -0.691630     -0.431014     -0.998853
O       9.60617      3.77713     11.59105         0.327152      0.044416     -1.004466
O       9.46291      0.01740     11.58387         0.400737     -0.197852     -0.416636
O       9.70781      7.64229      2.73275        -0.586256      0.029519     -0.030803
O       9.51681      7.70496     15.98612        -0.142241     -0.386775     -0.802069
O       9.61598      7.66503      7.23197         0.006386      0.228752     -0.727668
O       9.75254      7.67488     11.69667        -1.390242     -0.362607     -1.428138
O       9.54889     11.42033      2.79613         0.253433      0.648975     -0.379760
O       9.53619     11.47814     15.85050         0.145585      0.048235     -0.477281
O       9.60606     11.56918      7.15671        -0.689073     -0.686061      0.253404
O       9.52515     11.53525     11.51132         0.196575      0.610286     -0.585963
