  # total energy = -7876.66049744 
CRSYTAL
PRIMVEC
    15.2000000000000000    0.0000000000000000    0.0000000000000000
     0.0000000000000000   15.2000000000000000    0.0000000000000000
     0.0000000000000000    0.0000000000000000    17.000000000000000
PRESSURE
8.2049 8.01502 5.66883 -0.0086 0.005008 0.071245
PRIMCOORD
320 1
Pb       3.92649      3.68711      4.17837        -0.037199     -0.028527     -0.071355
Pb       3.57401      3.64496     16.90337         0.711998      0.155444      0.205957
Pb       4.01762     14.92064      4.10234        -0.785366      1.328054     -0.073688
Pb       3.65023     15.12709     16.92617         0.099476      0.538752      0.435299
Pb      15.17474      3.54793      4.23732         0.417972      0.601257     -0.133068
Pb      15.06374      3.92062     16.96951        -0.052674     -0.961034     -0.596504
Pb      15.14130     14.88060      4.13129         0.554569      1.211782      0.344098
Pb      15.07769      0.02053      0.08622         0.241991      0.312288     -0.548835
Pb       3.47027      3.90628      8.52742         0.516113     -0.539867     -0.009100
Pb       3.79548      0.12354      8.24974        -0.148209     -0.255631      0.858859
Pb      15.10388      3.82534      8.35720         0.548580     -0.086045      0.759736
Pb       0.14604      0.12479      8.24126        -0.080813     -0.421598      1.501668
Pb       3.73937      3.76634     12.77619        -0.132112      0.531485     -0.036935
Pb       3.79462      0.01371     12.71219        -0.494928     -0.024731     -0.438843
Pb      15.08195      3.88226     12.78900         0.166643      0.041743     -0.204107
Pb      15.04460     15.15306     12.63646         0.853556      0.322698      0.056285
Pb       3.90717      7.42716      4.14223        -0.177039      0.245337      0.024574
Pb       3.63002      7.46704     16.91288         0.495774      0.461556     -0.358651
Pb       0.00314      7.36740      4.26242        -0.177245      1.593796      0.177339
Pb      15.07435      7.51943      0.20045         0.308779      0.748186     -1.054968
Pb       3.77553      7.48896      8.58918         0.194144      0.747041     -0.301411
Pb       0.08623      7.68866      8.47323        -0.382935     -0.208798      0.247794
Pb       3.77149      7.76801     12.89430         0.490857     -0.244623     -0.630116
Pb      15.17766      7.78558     12.91223         0.068468     -0.802788     -0.797664
Pb       4.10868     11.30359      4.13478        -1.119390     -0.885796      0.052473
Pb       3.64432     11.39003     16.67929         0.215547     -0.090775      1.286673
Pb       0.10281     11.24445      4.24030        -0.105937     -0.660540     -0.592299
Pb      15.02082     11.35639      0.01486         0.756296      0.104607      0.009212
Pb       3.81657     11.40986      8.40485        -0.047895     -0.503298     -0.026112
Pb       0.16445     11.39507      8.39428        -0.299127     -0.405461     -0.460067
Pb       3.91161     11.59921     12.62400        -0.317253     -1.353337      1.224595
Pb       0.03137     11.60397     12.69831        -0.079015     -0.262595      0.479357
Pb       7.62721      3.87529      4.35516        -0.380100     -0.001433     -0.347727
Pb       7.57545      3.78195     16.91825        -0.212192     -0.180462      0.195710
Pb       7.58262     15.19139      4.24374         0.143418      0.388163     -0.359484
Pb       7.49645     15.18953     16.89645         0.562761      0.520162      0.459467
Pb       7.29716      3.76491      8.70365         0.716367     -0.432971     -0.386621
Pb       7.52469      0.06071      8.63371         0.188275     -0.038037     -0.199986
Pb       7.63246      3.70701     12.68794         0.092139      0.676312      0.170845
Pb       7.52938     15.06602     12.73764         0.304683      0.469170     -0.417791
Pb       7.40514      7.52323      4.15431         0.809076      0.122876      0.292046
Pb       7.77263      7.44945      0.02650        -0.526000     -0.032611     -0.340665
Pb       7.53852      7.49667      8.62464        -0.119313      0.595462     -0.798643
Pb       7.69103      7.62900     12.75275        -0.646333     -0.316865      0.419016
Pb       7.66067     11.50599      4.23687         0.207214     -0.766937     -0.025954
Pb       7.41783     11.30432     16.98839         0.678599      0.478879     -0.689026
Pb       7.66723     11.27180      8.54366         0.046715      0.175592     -0.483334
Pb       7.73399     11.51690     12.79289        -0.675191     -0.826050      0.274526
Pb      11.30030      3.80226      4.39168        -0.253620     -0.193422     -0.275626
Pb      11.32446      3.90086     16.92171         0.280789     -0.426746      0.322858
Pb      11.28489     15.17392      4.29218        -0.239007      0.041461     -0.544764
Pb      11.28315      0.12010      0.06138        -0.153947     -0.174877     -0.033587
Pb      11.33228      3.79549      8.48716         0.375954      0.228237      0.319823
Pb      11.50416     15.14352      8.62951        -0.352582      0.021405     -0.225893
Pb      11.45790      3.79590     12.59554        -0.162577      0.518665      0.546173
Pb      11.35864      0.01860     12.66902        -0.133941     -0.153265     -0.010708
Pb      11.29321      7.36733      4.33370        -0.010386      0.981480     -0.025595
Pb      11.44589      7.65139      0.10745        -0.329923     -0.504890     -0.420558
Pb      11.50487      7.65947      8.49689        -0.160898     -0.272989      0.041003
Pb      11.55036      7.77289     12.77051        -0.371469     -0.556014     -0.948394
Pb      11.40666     11.50356      4.28726        -0.285128     -0.741041     -0.152326
Pb      11.34591     11.21357      0.11163         0.080987      1.366888     -0.783472
Pb      11.44959     11.31220      8.38561        -0.101245      0.147376      0.485620
Pb      11.49986     11.38216     12.81236        -0.392077      0.433341     -0.507430
Ti       1.88183      1.83054      2.26792         0.512844     -0.596997     -0.088702
Ti       1.85023      1.89155     14.92999        -1.319147     -0.153561      0.850388
Ti       1.85253     13.17197      2.22569        -0.036503     -0.532871      0.435617
Ti       1.79650     13.39760     14.97475        -0.862448     -0.805215      0.330893
Ti      13.23293      1.86425      2.26878        -0.277886      0.247323     -0.708405
Ti      13.19635      1.87915     15.00633         1.058979      0.423945      0.319857
Ti      13.15144     13.29388      2.28405         0.113141     -1.261058     -0.362834
Ti      13.17565     13.32275     15.05576         0.483679     -0.301761      0.481670
Ti       1.91255      1.91654      6.34969         0.580474      0.832491      0.032933
Ti       1.91160     13.21762      6.33096         1.029381     -0.008383      1.091485
Ti      13.32042      1.85922      6.34854        -0.126590      0.038033      1.506309
Ti      13.35393     13.32792      6.53820        -0.436123     -0.991444      0.391462
Ti       1.86761      1.96120     10.76678         0.488374     -0.682893     -0.031266
Ti       1.92059     13.30879     10.55985        -0.462318      1.156929      0.292707
Ti      13.31295      1.84901     10.64298         0.398129      1.026068      1.437685
Ti      13.28462     13.27870     10.62622        -0.443541      0.017538     -0.507522
Ti       1.87339      5.62382      2.19166         0.702511     -0.295693      1.865902
Ti       1.87706      5.68654     14.95294        -0.955207      1.120507     -0.775489
Ti      13.32470      5.59029      2.33671        -1.139459      1.226036      0.184020
Ti      13.22265      5.79560     14.98449         0.942461     -1.195980     -1.207663
Ti       1.85164      5.79569      6.43319         0.049801     -1.384396     -0.172130
Ti      13.36579      5.67629      6.53836        -0.893633      0.853805      1.349736
Ti       1.83726      5.78578     10.87584         0.299310     -0.051611      1.436073
Ti      13.31028      5.72259     10.66982        -0.170711     -0.037203      0.554935
Ti       1.95203      9.36485      2.20758        -0.538743      1.376295      0.923238
Ti       1.84803      9.54987     14.91161        -0.186665      0.016330      2.289313
Ti      13.21631      9.44023      2.24338         1.156581      0.010813      2.465166
Ti      13.29715      9.53607     14.97230         0.591151      0.185088     -0.510578
Ti       2.02986      9.42338      6.35022        -0.147997      0.860483      0.259384
Ti      13.35914      9.47349      6.43961         0.705350     -0.318454      0.805862
Ti       1.83408      9.56116     10.73356         1.720866     -0.536198      0.981654
Ti      13.39581      9.59734     10.66220        -1.496420     -0.945834      1.747150
Ti       5.71449      1.82785      2.10877        -0.033100      0.549850      0.962284
Ti       5.66089      1.96056     14.84581        -0.101340     -0.195000      0.815035
Ti       5.61544     13.17162      2.00352         0.855035      1.011195     -0.895355
Ti       5.64066     13.40707     15.02992        -0.003134     -1.491833     -0.549772
Ti       5.74878      1.89649      6.53883         0.208133      0.013907     -0.521001
Ti       5.74760     13.24956      6.50395         0.106233      0.135168      1.154634
Ti       5.71004      1.89767     10.88014        -0.805019     -1.022791     -0.405112
Ti       5.68068     13.23305     10.61335         0.248784      1.198511      0.246474
Ti       5.68640      5.60607      2.05142         0.195016     -0.723505      1.819283
Ti       5.69244      5.65506     14.94565        -0.791378      0.507864      0.303959
Ti       5.67730      5.59529      6.64101        -0.665359      1.632081     -1.035858
Ti       5.63549      5.67212     10.78955        -0.505801      0.988711      1.494320
Ti       5.74038      9.43174      1.99302        -0.564143     -0.596772     -0.393937
Ti       5.72647      9.45520     15.03698        -0.387717     -0.038437     -0.129458
Ti       5.77001      9.49080      6.56404        -0.837545     -1.521029     -0.334558
Ti       5.73398      9.47342     10.74895        -1.062565     -0.762050      1.690042
Ti       9.42345      1.95354      2.30536        -0.097745     -0.448294      0.347660
Ti       9.45936      1.92243     14.93854         0.136262     -0.326345     -0.459931
Ti       9.36659     13.26173      2.16236         0.385488      1.017037     -0.018428
Ti       9.42154     13.25143     15.01520         1.086974     -0.498388      0.568301
Ti       9.57693      1.87606      6.62366        -1.795199     -0.196913      0.532916
Ti       9.52389     13.32637      6.63923        -1.017215     -0.269018     -0.373289
Ti       9.51543      2.01397     10.72998         0.198510     -1.267883      0.611167
Ti       9.44537     13.32650     10.71268         1.672543     -0.323245      0.392084
Ti       9.53839      5.66225      2.32131        -1.825890      0.104787      0.485830
Ti       9.53698      5.63878     14.86862        -1.044922      0.862745      1.679102
Ti       9.45422      5.69505      6.71858        -0.005875      0.557262     -1.772892
Ti       9.45358      5.79779     10.68041         1.347799     -0.424255      1.275794
Ti       9.49469      9.49540      2.15740        -0.452679     -0.798148      2.354731
Ti       9.50285      9.40951     15.04945        -0.039022      0.926681      0.378706
Ti       9.52048      9.45036      6.39462        -0.865712     -0.603876      0.188430
Ti       9.47702      9.46806     10.75842         1.502853      0.474567      0.569342
O       1.94028      1.67516      0.48651        -0.055168      0.782678     -0.086327
O       1.89740      1.81639     13.22159        -0.296085     -0.119586     -1.495357
O       1.91570     13.24885      0.48467        -0.293577      0.207530     -0.643214
O       1.81781     13.34162     13.22839        -0.293321      0.146060     -0.855254
O      13.22202      1.96380      0.46512        -0.305030     -0.263299      0.293031
O      13.19185      1.81096     13.22781         0.079262     -0.026805      0.266611
O      13.24164     13.16225      0.54760        -0.211014      0.604370     -0.662014
O      13.15221     13.34108     13.29212         0.417780      0.006642     -1.072503
O       1.84991      1.94654      4.60559        -0.006834     -0.200826     -0.874980
O       1.80734     13.11600      4.59609         0.480235      0.592383     -1.049124
O      13.21516      1.76471      4.61856         0.336318      0.186259     -0.879370
O      13.06652     13.18295      4.78254         0.808926      1.023796     -0.693571
O       1.97235      1.98657      8.96155        -0.235687     -0.065687     -0.005627
O       2.03064     13.21369      8.75982        -0.517136      0.300289      1.224029
O      13.17354      1.96571      8.93206         0.251433      0.017324     -1.166674
O      13.22718     13.25306      8.85830         0.448684     -0.068700     -0.555569
O       1.86881      5.63898      0.45202        -0.432422      0.321334     -0.919709
O       1.78871      5.80293     13.16811         0.100746     -0.303436      0.334673
O      13.21802      5.63906      0.53374         0.290571      0.281282      0.211706
O      13.31326      5.70651     13.17250        -0.096744      0.343041      1.069185
O       1.82998      5.67632      4.68294         0.328573      0.080822     -0.353587
O      13.39311      5.81532      4.81586        -0.531336     -0.618916     -1.674036
O       1.88656      5.66922      9.12797         0.029589      0.076011     -1.514766
O      13.47764      5.65737      8.89755        -0.650490     -0.244900     -0.075324
O       1.83797      9.52243      0.49057         0.048676     -0.601481     -1.679620
O       1.73273      9.56655     13.19799         0.119050      0.085844     -1.405063
O      13.18198      9.47622      0.48851         0.147764     -0.309343     -1.137746
O      13.26828      9.59728     13.12142         0.209679     -0.596300      0.825324
O       2.03174      9.42570      4.58710         0.047820     -0.048640      0.118736
O      13.48269      9.43072      4.73898        -0.682891      0.131050     -1.203655
O       1.87767      9.52815      8.99538         0.077356      0.395394     -0.789737
O      13.38998      9.62956      8.93852         0.019145     -0.080118     -1.307160
O       5.67902      1.93155      0.38086         0.009105     -0.313319     -1.091627
O       5.65878      1.99228     13.05254         0.370201     -0.493079      0.362044
O       5.46999     13.26165      0.18651         0.848670      0.119046      1.272987
O       5.75919     13.31521     13.22392         0.007142      0.206378     -0.033611
O       5.77001      1.93686      4.76985         0.026460     -0.290033     -0.185721
O       5.71053     13.28962      4.69741         0.309132     -0.419561      0.018049
O       5.76991      1.88817      9.10710        -0.224576     -0.034787     -1.120798
O       5.71330     13.31507      8.85293        -0.516222     -0.306519      0.172942
O       5.76137      5.58289      0.34755        -0.281272      0.197602     -1.398532
O       5.57316      5.58094     13.18830         0.358824      0.253247     -0.160324
O       5.62722      5.51825      4.83366         0.023854      0.256717      0.163659
O       5.57202      5.76272      9.00301         0.245937     -0.372502     -0.799512
O       5.84600      9.49679      0.19619        -0.852074     -0.515370      1.052513
O       5.74091      9.28867     13.29240        -0.037467      0.294988     -1.127858
O       5.78659      9.55393      4.78860        -0.176538     -0.016008     -0.946711
O       5.76197      9.44109      9.02409        -0.054338      0.133718     -1.045434
O       9.39175      1.94624      0.57871         0.402411      0.266493     -2.065698
O       9.50217      1.99110     13.16980         0.136153     -0.216161     -0.084505
O       9.43574     13.33605      0.41546         0.212478     -0.085136      0.001943
O       9.44845     13.22883     13.19392        -0.293011      0.364814      0.642887
O       9.42023      1.84330      4.84651         0.227159     -0.011791     -0.301535
O       9.41235     13.25317      4.78418         0.061067      0.251987      0.695697
O       9.54576      1.90421      8.98189         0.299789      0.171921     -0.551650
O       9.49459     13.22749      8.96975        -0.016129     -0.153342     -1.027476
O       9.49446      5.71568      0.57497         0.195664     -0.410082     -1.517353
O       9.45334      5.70614     13.19401         0.234101     -0.063400     -2.093649
O       9.35566      5.70240      4.80166         0.566601     -0.178623      1.156817
O       9.46258      5.77923      8.94511        -0.039861     -0.047242     -1.798180
O       9.65828      9.49968      0.39574        -0.583642     -0.537770     -0.449432
O       9.54672      9.36276     13.29744         0.077027      0.494729     -0.943785
O       9.27842      9.45118      4.62950         0.361117     -0.035608      0.670193
O       9.59916      9.48166      9.00343        -0.606527      0.042147      0.066992
O       3.85085      1.78153      2.57172        -0.591977     -0.367481      0.220257
O       3.70373      1.82856     15.20887         1.340216      0.628062      0.436256
O       3.81051     13.17278      2.50624         0.046045      0.360846      0.379955
O       3.72060     13.25992     15.20454         0.149672      0.386828      0.009734
O      15.13892      1.83228      2.40795         0.402953     -0.016028      1.013489
O      15.13526      1.86049     15.29951        -0.503763     -0.192617      0.419550
O      15.11173     13.18670      2.64707         0.004427     -0.180687     -0.377334
O      15.08643     13.53843     15.43004         0.200732     -0.904998     -0.259097
O       3.81348      1.99880      6.76533        -0.468339     -0.681201      0.182531
O       3.74243     13.23939      6.77064         1.681554      0.549625     -0.298342
O       0.02077      1.92476      6.75725        -0.632246     -0.058409     -0.111216
O       0.13500     13.35391      6.74435        -2.381626     -0.257739      0.288687
O       3.82912      1.86346     11.07700        -0.641332      0.390145      0.417009
O       3.77451     13.29348     11.14298        -0.266649     -0.149490     -0.907288
O       0.00540      1.75045     11.01280        -0.918087      0.739424      0.164730
O      15.19331     13.37699     10.99263         0.171240     -0.178562      0.049844
O       3.76752      5.63797      2.50689         0.087014      0.070934      0.158536
O       3.66729      5.51378     15.37089         1.227333      0.458579      0.153741
O      15.14750      5.57914      2.80548         0.751190      0.091240     -1.412283
O      15.15807      5.77368     15.46841        -0.451883      0.184072     -0.022851
O       3.65820      5.84284      6.86947         1.304855     -0.885644      0.372044
O       0.01073      5.74254      6.98808         0.618313     -0.290428     -0.509443
O       3.76077      5.56683     11.19314         0.431287      0.286526     -0.350010
O      15.19757      5.62844     11.17717        -0.335605      0.097287     -0.099418
O       3.89856      9.46795      2.45908        -0.138187     -0.172403      0.323389
O       3.74261      9.60959     15.25502        -0.789040     -0.548064     -0.258877
O      15.14389      9.37171      2.51855         0.014842      0.217568      0.021929
O      15.14293      9.41520     15.36045         0.168689     -0.208062      0.291447
O       3.87078      9.51674      6.94497        -1.008749     -0.373589     -0.203206
O       0.08879      9.45130      6.83517        -0.217468      0.881217      0.014725
O       3.82904      9.59031     11.14523        -0.745742      0.089852      0.044270
O      15.18477      9.36645     11.06287        -0.002938      0.664302      0.284534
O       7.56063      1.94047      2.52060        -0.327876      0.104026      0.799535
O       7.57882      1.92632     15.24360        -0.341393     -0.180530      0.112228
O       7.50468     13.13640      2.44816         0.487394      0.143301      0.226072
O       7.53913     13.28817     15.46619         0.030247      0.289895     -0.666832
O       7.60064      1.88814      7.00381         0.167221      0.596533      0.023990
O       7.57219     13.16710      6.97020         0.427632      0.016011     -0.557068
O       7.65109      1.78481     11.08311        -0.059358      0.305218      0.336823
O       7.57542     13.46172     10.97163        -0.380505     -0.866607      0.507858
O       7.52655      5.64113      2.54899         0.052672     -0.368139      0.294021
O       7.53803      5.76325     15.21589         0.731859      0.087823      0.506412
O       7.55794      5.68654      6.90194        -0.135999     -0.369293      0.517628
O       7.61598      5.79761     11.05798        -1.155524     -0.114432      0.015773
O       7.55227      9.41538      2.43092         0.719428      0.072913      0.045246
O       7.61120      9.36064     15.33122         0.339201     -0.168987      0.106440
O       7.55268      9.42842      6.98036         2.145877      0.385385      0.119573
O       7.62097      9.36834     11.17789         0.014085      0.518674     -0.405150
O      11.33232      1.79088      2.60898         0.162530      0.464226      0.411683
O      11.32114      2.07095     15.41540        -0.079871     -0.708848     -0.009225
O      11.26833     13.27390      2.66675         0.024780      0.286405     -0.006260
O      11.35281     13.07749     15.35548        -1.146614      0.721334      0.179114
O      11.45739      1.78108      6.78176        -0.330442      0.242867      0.190571
O      11.37112     13.34858      6.90641         0.503132      0.136446     -0.153623
O      11.45334      1.94709     11.15594        -1.023277     -0.233287     -0.439567
O      11.38703     13.20376     10.95446         0.236284      0.329258      0.534682
O      11.33587      5.57064      2.81322         1.738670      0.305125     -0.178188
O      11.35978      5.68572     15.26167         0.456865     -0.206670      0.475762
O      11.42475      5.76544      6.89016         0.088362     -0.479318     -0.040694
O      11.39169      5.71264     10.85063         0.202162     -0.578201      0.535308
O      11.30717      9.36424      2.64426         0.283842     -0.093538     -0.121396
O      11.48101      9.60362     15.33080        -1.514961     -0.498485      0.188570
O      11.42757      9.38007      6.78573         0.224909      0.196012     -0.189031
O      11.45274      9.41282     10.97444        -0.121752      0.687141      0.651240
O       1.93553      3.73826      2.50934        -0.402753     -0.165243      0.078450
O       1.76099      3.85580     15.25729        -0.163052     -2.012068      0.367955
O       1.88071     15.08915      2.58270        -0.149952     -0.284846      0.451430
O       1.89185      0.00089     15.43732        -0.269462      0.350165     -0.231544
O      13.29211      3.76861      2.63529        -0.445606     -0.680245      0.457627
O      13.26881      3.86732     15.36139         0.150866     -0.400802      0.031919
O      13.18430     15.16008      2.59514         0.358931     -0.246814      0.099917
O      13.12890     15.18492     15.48951        -0.563921      0.905614     -0.084846
O       1.78452      3.82267      6.77182         0.508283      0.314068      0.346401
O       1.85340      0.07521      6.71234         0.890887     -1.062367     -0.145834
O      13.35485      3.75657      6.70341        -0.330656     -0.205716      0.095341
O      13.42688      0.00483      6.91599        -0.571077     -0.018631     -0.463381
O       1.92158      3.78489     11.29934        -0.655839     -0.366656     -0.630286
O       1.86856      0.02203     11.07697         0.613265     -1.093030     -0.220086
O      13.26327      3.77642     11.21431         0.761846     -0.219865     -0.812494
O      13.20952     15.15816     10.89112        -0.178076      0.445767      0.716774
O       1.94299      7.53090      2.59597        -0.270970     -1.138637     -0.242031
O       1.92049      7.63114     15.20621         0.146330      0.049579      0.597748
O      13.25694      7.53026      2.72358        -0.226704     -0.639880     -0.704421
O      13.20924      7.61390     15.47574         0.067698      0.216698     -0.219609
O       1.86540      7.64823      6.85437         0.132051     -0.645004      0.175711
O      13.49413      7.57318      6.90118        -1.041458      0.728435      0.060969
O       1.89944      7.68651     11.11445         0.218574     -0.628164      0.194930
O      13.28388      7.53377     11.03538         0.306272      1.329220      0.134367
O       1.88522     11.23529      2.58290        -0.098823      1.565417      0.220124
O       1.63467     11.48492     15.38004         0.380609     -0.613398     -0.353374
O      13.14885     11.32405      2.54355        -0.026539      0.181099      0.619660
O      13.29233     11.36641     15.35010         0.764297      0.537966      0.168469
O       1.89838     11.32127      6.67987         0.019003      0.609141      0.405078
O      13.31122     11.44176      6.74307         0.174178     -0.534882      0.476560
O       1.73024     11.43907     11.11221         0.557389      0.705236     -0.495183
O      13.34370     11.46650     11.13893         0.178858     -1.018041     -0.113679
O       5.63404      3.70935      2.53262        -0.021052      0.639281      0.062729
O       5.66660      3.73120     15.35604        -0.113875      0.549993     -0.138185
O       5.88405     15.08255      2.52685        -1.042067     -0.204649     -0.063097
O       5.69363      0.09870     15.26314        -0.140553     -0.856345     -0.042236
O       5.62181      3.75279      7.00568         0.245034      0.596592      0.255349
O       5.82437      0.01147      6.87037        -0.893086     -0.991083     -0.202994
O       5.82090      3.79077     11.09794        -0.006503      0.064540     -0.232328
O       5.60549     15.10971     11.08033         0.404186      0.355501      0.294871
O       5.67543      7.50583      2.47691        -0.149034      0.490884     -0.009836
O       5.40354      7.51422     15.34609         0.369767     -0.113429     -0.115954
O       5.72786      7.54711      6.83701        -0.339170     -0.125523      0.472905
O       5.56793      7.56675     11.11723         0.247673      0.044562     -0.011760
O       5.75592     11.33336      2.28602        -0.395716      0.008700      0.725013
O       5.64895     11.37438     15.14140         0.574100      0.501021      0.676369
O       5.69997     11.35212      6.90775        -0.015820      1.260106     -0.085843
O       5.72496     11.37623     11.11710         0.570844      0.787787     -0.203885
O       9.45044      3.82961      2.81547         0.284026     -1.134590      0.000594
O       9.37936      3.81962     15.30470         0.261494     -0.058638      0.323484
O       9.29701      0.03303      2.49488         0.468018     -1.394216      0.851774
O       9.49107      0.01155     15.28364         0.188120     -0.219635      0.266549
O       9.48254      3.78988      6.97632         0.545819     -0.453919     -0.246773
O       9.37631     15.17508      7.08622         0.610756     -0.213765     -0.835111
O       9.44347      3.89240     10.99834         0.098557     -1.089568      0.302584
O       9.57611      0.01330     11.13151        -0.015320     -0.059742     -0.236456
O       9.38498      7.48251      2.59730         0.399926      1.624584      0.118398
O       9.61949      7.56713     15.41484        -0.247833     -0.368183      0.278400
O       9.49941      7.57269      6.94795        -0.138673      0.573334     -0.115919
O       9.57721      7.58727     11.23561        -0.149200      0.964794     -0.280243
O       9.50207     11.34394      2.61219        -0.231202      0.176986     -0.337631
O       9.36388     11.35759     15.46497         0.070257      0.050320     -0.623441
O       9.58045     11.27426      6.85957        -0.438159      1.063978     -0.032004
O       9.46938     11.42639     11.27072        -0.248333     -0.942034     -0.809656
