  # total energy = -7877.22977635 
CRSYTAL
PRIMVEC
    15.2000000000000000    0.0000000000000000    0.0000000000000000
     0.0000000000000000   15.2000000000000000    0.0000000000000000
     0.0000000000000000    0.0000000000000000    17.000000000000000
PRESSURE
6.85057 7.25771 1.63625 0.36811 -0.058245 0.024064
PRIMCOORD
320 1
Pb       3.90017      3.74619      4.21079        -0.633096      0.262285     -0.087257
Pb       3.57409      3.67697      0.01978         0.545921      0.584342     -0.050256
Pb       3.93903     14.99573      4.22264        -0.269787      0.235803     -0.163020
Pb       3.74846     15.16249      0.01969        -0.080242     -0.305224     -0.690623
Pb      15.15735      3.72997      4.29186        -0.446732      0.103274     -0.481893
Pb      15.07865      3.80389     16.97000        -0.255912      0.017820     -0.307964
Pb      15.18867     15.01436      4.10521        -0.265061     -0.144795     -0.064845
Pb      15.15567      0.04672     16.99770        -0.109331     -0.346422     -0.151143
Pb       3.57465      3.73416      8.55937         0.243899      0.458450     -0.295606
Pb       3.75315      0.15745      8.23208         0.036818     -1.050963      0.804570
Pb      15.02227      3.82067      8.34921         0.777831      0.097414      0.042833
Pb       0.18970      0.08287      8.46677        -0.643419     -0.258049     -0.147790
Pb       3.75228      3.78231     12.85859         0.147863     -0.151104     -0.670451
Pb       3.79187     15.11529     12.64092         0.262882      0.486215      0.401978
Pb       0.00823      3.65608     12.81806        -0.592789      0.317611      0.265483
Pb      15.10463     15.07138     12.58581        -0.143175      0.732062      0.886136
Pb       3.82951      7.48948      4.16112        -0.745372      0.654948      0.280845
Pb       3.74757      7.49779      0.08863         0.291503     -0.032407     -0.405316
Pb       0.01667      7.37886      4.20117        -0.030624      1.116592      0.399425
Pb       0.07736      7.60641      0.17703        -0.407345     -0.115559     -0.911058
Pb       3.71508      7.50752      8.57412         0.786632      0.184613     -0.026586
Pb       0.04263      7.67558      8.51433        -0.347139     -0.151894     -0.483429
Pb       3.80502      7.76435     12.89385         0.126440     -0.618111     -1.380088
Pb      15.16413      7.75164     12.85274         0.383213     -0.571725     -0.441128
Pb       3.99399     11.34620      4.17258        -0.686848      0.256051      0.024162
Pb       3.63804     11.37043     16.73273         0.618240      0.684512      0.805222
Pb      15.19480     11.25854      4.25004         0.377993      0.447482      0.162153
Pb      15.11475     11.39265      0.05713         0.173062      0.233705     -0.880512
Pb       3.81816     11.34296      8.34537        -0.047293      0.364597      0.866497
Pb       0.01456     11.34513      8.46401         0.074484     -0.076144     -0.367780
Pb       3.88069     11.44162     12.67068        -0.160587      0.506180      0.269189
Pb       0.00586     11.59642     12.55977         0.319227     -0.596529      0.717802
Pb       7.64568      3.84624      4.28519        -0.218224     -0.425760     -0.331913
Pb       7.60592      3.77540     16.95160        -0.436625      0.096853     -0.396779
Pb       7.58186      0.08947      4.26164         0.456441     -0.388993     -0.438481
Pb       7.49863      0.03360     16.97387         0.325240     -0.448905      0.222799
Pb       7.42376      3.83249      8.56247         0.188120     -0.160299     -0.117910
Pb       7.51603      0.02939      8.53198         0.277022     -0.120842     -0.213308
Pb       7.58127      3.66203     12.66407        -0.120334      0.202007      0.303460
Pb       7.64129      0.02653     12.69364        -0.236725     -0.363828     -0.211749
Pb       7.39154      7.58969      4.32453         0.865940      0.409620     -0.167206
Pb       7.66620      7.37947     16.96588        -0.545903      1.157602     -0.145880
Pb       7.61749      7.52794      8.63187        -0.502278     -0.041922     -0.819020
Pb       7.77224      7.58032     12.85263        -0.455525     -0.400058     -0.408809
Pb       7.68179     11.44560      4.15402        -0.164866      0.369110      0.018840
Pb       7.55940     11.29390     16.96450         0.091482     -0.048910      0.198627
Pb       7.61503     11.23958      8.39448        -0.005274      0.497143      0.308044
Pb       7.65964     11.35551     12.82665         0.085567      0.478427     -0.723464
Pb      11.41722      3.72802      4.34415        -0.193943     -0.397049     -0.288856
Pb      11.41929      3.96091     16.96776        -0.061074     -1.114233     -0.006230
Pb      11.27914      0.00346      4.28570         0.172831      0.073411     -0.444419
Pb      11.25953      0.02655     16.98304         0.651903     -0.089831      0.269600
Pb      11.32811      3.73794      8.48771        -0.567444      0.692714      0.133426
Pb      11.40978     15.13708      8.66692        -0.187612      0.001504     -0.618532
Pb      11.47269      3.80021     12.68298        -0.078799     -0.280951      0.027590
Pb      11.31868      0.00473     12.81695         0.340717     -0.316621     -1.185343
Pb      11.35981      7.48858      4.34406        -0.272694     -0.008814     -0.122568
Pb      11.38482      7.56899      0.10288        -0.143309      0.584490     -0.422286
Pb      11.47279      7.69048      8.36915        -0.404941     -0.877675      0.489823
Pb      11.43048      7.62625     12.64641        -0.456685     -0.102682      0.548563
Pb      11.43158     11.51290      4.27675        -0.161430      0.157943     -0.267020
Pb      11.32287     11.22811      0.11768        -0.073377      0.603386      0.260674
Pb      11.37025     11.31234      8.49575         0.127121      0.457225     -0.118141
Pb      11.49927     11.36443     12.99141        -0.411167      0.332464     -1.252678
Ti       1.79671      1.86899      2.24767         0.878129      0.025453      0.436293
Ti       1.79971      1.87701     14.99202        -0.328567     -0.348384     -1.397512
Ti       1.92899     13.24963      2.15731        -0.378016     -0.538371     -0.849652
Ti       1.80938     13.33647     14.86576         1.030408     -0.550856      0.980390
Ti      13.24407      1.82719      2.27781        -0.475786      0.492737     -0.759302
Ti      13.18568      1.86178     15.00588         1.334856      0.836236     -0.594647
Ti      13.31341     13.22830      2.05377        -0.271520      1.039451     -0.274957
Ti      13.24032     13.32044     14.98607         1.449633     -0.482030      0.575642
Ti       1.80965      1.89954      6.19833        -0.347486      0.063591      1.816966
Ti       1.88678     13.25569      6.42396         1.018434     -0.033776      0.562685
Ti      13.16532      1.82697      6.55772         0.730788     -0.331232     -0.675920
Ti      13.34438     13.28924      6.46889         0.041009     -0.199042      0.630106
Ti       1.74911      1.90724     10.80694         1.260562     -0.136683      0.116325
Ti       2.00596     13.34619     10.61962        -0.168740     -0.354810     -0.903343
Ti      13.29725      1.96165     10.63664        -1.434007     -0.761777      0.417952
Ti      13.32140     13.28466     10.63058        -1.255483      0.351085      1.081121
Ti       1.78991      5.63799      2.22563         0.604504      0.498184     -0.264348
Ti       1.84095      5.67988     14.92014        -0.814534      0.401812      0.896696
Ti      13.13384      5.64911      2.25365         0.871065      0.133891      0.566081
Ti      13.21439      5.73690     14.88004         1.125494     -0.182431      0.988171
Ti       1.87690      5.66046      6.38568        -0.269041     -0.151370      0.278908
Ti      13.14743      5.66485      6.41303         0.423363      0.683087      0.587765
Ti       1.80364      5.66039     10.73447         0.877910      1.074175      0.375594
Ti      13.32301      5.76329     10.66106        -0.798752     -0.289883     -0.343445
Ti       1.91247      9.52890      2.19232        -0.342147     -0.546759      1.745789
Ti       1.88072      9.42973     14.94330        -0.750076      1.465820     -0.953467
Ti      13.26929      9.49293      2.35246         0.504746     -0.190560     -0.814754
Ti      13.30249      9.46764     15.05261        -0.350127      0.451280      1.955874
Ti       1.89597      9.41920      6.45168        -0.848003      0.179867     -1.174999
Ti      13.22681      9.50971      6.34906         1.873430     -0.245669      0.015274
Ti       1.96731      9.52188     10.80475         0.047089     -0.176517     -0.395765
Ti      13.35787      9.48854     10.78620        -1.702767      0.320586     -1.462443
Ti       5.61552      1.95963      2.19817         0.566962     -0.793611     -0.074610
Ti       5.70328      1.87135     15.02955        -0.576247      0.358057     -1.673947
Ti       5.74278     13.35231      2.10072         0.670964     -0.667829      1.159612
Ti       5.75870     13.27213     14.88995        -1.475449      0.160907      1.387544
Ti       5.59268      1.95330      6.38674         1.360824     -0.263841      0.751855
Ti       5.79083     13.28962      6.50445        -0.807643      0.547745     -0.145237
Ti       5.56362      1.91624     10.65772         0.357997     -0.579676     -0.036048
Ti       5.83317     13.33402     10.63311        -0.206121     -0.780279      0.048447
Ti       5.63924      5.72925      2.21568         0.239273     -0.625684     -1.325679
Ti       5.59931      5.71932     14.85115         1.067993     -0.183809     -0.299252
Ti       5.60171      5.68385      6.47121         0.185818      1.417459      1.371725
Ti       5.66404      5.70481     10.78561        -0.498321      1.001644     -0.489482
Ti       5.65190      9.49460      2.15984         0.746198      0.523921      0.478225
Ti       5.62558      9.46405     14.90498         1.494005      1.259107      0.864709
Ti       5.61065      9.50408      6.41644         0.985661     -1.637601      0.467584
Ti       5.75067      9.54631     10.76758        -1.194491     -0.882954     -0.641499
Ti       9.44931      1.91371      2.15006        -0.000119     -1.132477     -0.028684
Ti       9.48246      1.90985     14.95543        -0.178332     -0.103796     -0.329376
Ti       9.57243     13.32614      2.12914        -0.653293      0.441019      0.853294
Ti       9.52627     13.34249     14.97914        -0.394346     -1.193850     -0.261625
Ti       9.36194      1.90711      6.57256         0.178681     -0.618046     -0.234350
Ti       9.56435     13.33369      6.47773        -0.473250     -0.385937      1.505406
Ti       9.43257      1.80706     10.68613         0.858149     -0.042656     -0.069754
Ti       9.58983     13.20073     10.60979        -0.088376      0.537917      1.266278
Ti       9.42166      5.65042      2.26789        -0.550411      0.269953      0.346235
Ti       9.46744      5.69351     14.95480        -0.361014     -0.141842     -2.194287
Ti       9.34476      5.64348      6.43631         1.540571      0.283139      0.460347
Ti       9.48707      5.59020     10.75788         0.265279      0.702789     -0.684473
Ti       9.52923      9.41956      2.47753        -1.432372      0.158565     -1.550447
Ti       9.47658      9.54086     15.01753        -0.311856     -0.263306      0.659463
Ti       9.48682      9.48198      6.42939        -0.485548      0.148912      0.238295
Ti       9.47944      9.43285     10.68295         0.737762      1.284643     -0.159831
O       1.88222      1.98499      0.45469         0.002408      0.122560     -0.259157
O       1.71447      1.82567     13.14154         0.265810      0.660458      0.861588
O       1.84654     13.20446      0.35119         0.619531      0.111785      0.996363
O       1.78554     13.35994     13.07530         0.055085      0.038475      0.107801
O      13.25322      1.95095      0.48385        -0.054228      0.181986      0.059898
O      13.30608      1.99972     13.21886        -0.220496     -0.403757      0.201876
O      13.22394     13.21248      0.24999         0.474026      0.155735      1.005704
O      13.44735     13.34484     13.18284        -0.498062     -0.200909      0.277052
O       1.93062      1.90383      4.47236        -0.573105     -0.177732     -0.512726
O       1.86837     13.32949      4.64551         0.178943      0.214326     -0.524793
O      13.20267      1.88886      4.74032         0.188784     -0.055235      0.051042
O      13.47929     13.20744      4.69522        -0.369662      0.826819      0.282056
O       1.81419      1.96917      9.03064        -0.001857     -0.070545     -0.355463
O       1.90001     13.46325      8.80186         0.153264     -0.564924      1.273749
O      13.46083      1.90347      8.85683        -0.818608      0.119100      0.219611
O      13.27554     13.26469      8.88863        -0.069167     -0.027608     -0.357265
O       1.98274      5.69021      0.40881        -0.543107      0.186269      0.296603
O       1.75323      5.61628     13.17097         0.260276      0.372680     -0.482168
O      13.12682      5.55068      0.47962         0.264055      0.442419     -0.457040
O      13.30842      5.76478     13.12933        -0.034388     -0.040512      0.137268
O       1.93518      5.73115      4.59756        -0.189553     -0.220613      0.404566
O      13.07424      5.67902      4.59351         0.228252     -0.162929      0.609873
O       1.81241      5.67577      8.93312         0.074401     -0.103250      0.366451
O      13.13803      5.79511      8.83089         0.607394     -0.197054      1.047278
O       1.86415      9.50262      0.43632        -0.016777     -0.293652     -0.930805
O       1.87588      9.39192     13.08173        -0.153153      0.485405      1.545991
O      13.29083      9.55411      0.49002        -0.016513     -0.285953      0.771625
O      13.27180      9.36078     13.33362        -0.100239      0.226674     -2.016597
O       1.69472      9.34487      4.65573         0.915580      0.444443      1.267941
O      13.31050      9.51059      4.53282        -0.221944      0.131578      0.752531
O       1.83654      9.44952      8.98588         0.108684      0.039870     -0.168943
O      13.24966      9.29713      8.95669         0.529442      0.891289      0.886635
O       5.65427      1.98952      0.37656        -0.260578     -0.018524      0.075592
O       5.72906      1.83811     13.16687        -0.043576      0.047834      1.239102
O       5.79952     13.31844      0.38085        -0.407511      0.023322     -0.877923
O       5.66252     13.31297     13.15260         0.387531      0.017343     -0.977985
O       5.67470      1.93403      4.60117         0.156389     -0.339254      0.157228
O       5.71985     13.26299      4.67637        -0.183621      0.554646      0.423709
O       5.58123      1.87690      8.82580        -0.305365      0.421854      1.085914
O       5.78811     13.25396      8.85249        -0.312122      0.055675      0.615984
O       5.62667      5.74580      0.35410         0.233690     -0.090538      1.218668
O       5.69748      5.89869     13.02674        -0.051406     -1.008672      1.425866
O       5.76594      5.85054      4.68720        -0.857541     -0.542059     -0.218515
O       5.69737      5.64839      8.92767         0.037761      0.092151      1.037320
O       5.53062      9.44101      0.40653         0.483518      0.053940      0.278813
O       5.62080      9.65381     13.12651         0.256633     -0.613861      0.343065
O       5.58404      9.34734      4.61043         0.216046      0.458683      0.971234
O       5.56192      9.51365      8.95692         0.826256      0.152242      0.506216
O       9.41402      1.75146      0.32548         0.270444      0.568009      1.299732
O       9.44062      1.86316     13.12683        -0.050281      0.056145      0.690717
O       9.46239     13.36769      0.35764         0.275580      0.243094      0.131625
O       9.53945     13.17144     13.16919        -0.001670      0.284668      1.258718
O       9.40453      1.96738      4.75804        -0.081162     -0.143915      0.265340
O       9.57755     13.25477      4.72659        -0.064488      0.344839     -0.621428
O       9.48844      1.73728      8.90030         0.204683      0.241507      0.102790
O       9.66643     13.38608      8.82368        -0.052846     -0.169410      0.500525
O       9.40239      5.68500      0.43124        -0.009595      0.050427      0.208975
O       9.40489      5.66290     13.04746         0.089878     -0.039563      2.050287
O       9.57216      5.57541      4.62001        -0.632616     -0.263320      0.975512
O       9.58653      5.65531      8.91398        -0.554422      0.325095      1.312302
O       9.51960      9.49038      0.62883        -0.265714     -0.314778      0.866238
O       9.46573      9.65456     13.24943         0.223189     -0.080181     -0.223918
O       9.60816      9.68264      4.63669        -0.301802     -0.460444      0.675008
O       9.41947      9.38400      8.82377         0.285024      0.168096      1.279053
O       3.75970      2.00590      2.70732         0.252840     -0.645708     -1.144246
O       3.61774      2.08689     15.32222         1.845713     -0.038574     -0.103079
O       3.81472     13.32754      2.56830         0.125391     -0.116709     -0.140893
O       3.79608     13.17164     15.18720        -0.736713      0.408207      0.309961
O      15.14557      1.93657      2.58948         0.603331      0.366803      0.290302
O      15.14120      1.91237     15.40967         0.134733     -0.087320      0.161446
O       0.01251     13.24973      2.44633         0.221902      0.043743      0.240243
O       0.03796     13.40833     15.44069        -0.762012     -0.202287     -0.594661
O       3.73677      1.97709      6.70670        -0.403465     -0.407744     -0.210429
O       3.79442     13.34766      6.88157         0.389726      0.340224     -0.635433
O      15.11416      2.02842      6.77071         0.864986     -0.469347     -0.522428
O       0.10222     13.23294      6.85812        -1.651543      0.042347      0.064001
O       3.74292      2.02410     11.25368        -0.073626     -0.065383     -0.752789
O       3.84436     13.31400     11.04122         0.259154     -0.409523     -0.226931
O      15.06978      1.84295     11.11820         1.388851      0.052960     -0.058985
O       0.00578     13.39172     10.98240         0.138408     -0.324624     -0.380821
O       3.75284      5.70944      2.54243         1.046865      0.048050      0.012281
O       3.75088      5.73673     15.16552         0.597443     -0.310557      0.164780
O      15.12710      5.67920      2.57183        -0.129284     -0.284588     -0.251159
O      15.13536      5.85226     15.34006        -0.455037      0.105689      0.104487
O       3.76982      5.57959      7.00690        -0.670112      0.519454     -0.905333
O      15.14180      5.67920      6.62396        -0.055319     -0.330483      0.098344
O       3.79743      5.52575     11.04741        -0.935418     -0.230506      0.063346
O      15.15167      6.04617     11.03403         0.192811     -0.803149     -0.311894
O       3.81209      9.44193      2.67076        -0.254373      0.051254     -0.535614
O       3.79874      9.54787     15.23086        -1.094741     -0.126803     -0.099983
O       0.02740      9.65191      2.64041        -0.882641     -0.939030     -1.042972
O      15.16683      9.37527     15.32456         0.170784     -0.332341      0.196130
O       3.80098      9.38561      6.83411        -0.774016      0.383298     -0.180750
O      15.14845      9.42791      6.82870         0.472581      0.478671      0.233431
O       3.81605      9.69877     11.16537        -0.163972     -0.370050     -0.336345
O      15.18165      9.54695     11.08855         0.097445     -0.514928      0.155141
O       7.59689      1.76245      2.63177        -0.411446      0.549762     -0.587473
O       7.61023      1.76133     15.39573        -0.945787      0.154391     -0.563757
O       7.67062     13.44049      2.55917        -0.580661     -0.247240     -0.034748
O       7.60126     13.45804     15.18679         0.124081     -0.203020      0.255609
O       7.51497      1.85494      7.04153        -0.189519      0.732588     -1.044389
O       7.57143     13.31926      6.93500         0.792590     -0.486799     -0.569615
O       7.57882      1.75688     11.01433        -0.632040      0.108737      0.005365
O       7.71688     13.35699     11.07515        -1.302303      0.302836     -0.260214
O       7.54077      5.72495      2.72541        -0.253004     -0.210950     -0.711059
O       7.57694      5.75166     15.30405        -0.269643     -0.015017      0.030384
O       7.54369      5.65171      6.91776        -0.129331      0.411716     -0.416318
O       7.61040      5.89260     11.06210         0.006180     -0.256267     -0.334605
O       7.57302      9.51717      2.76854        -0.147521     -0.025118     -0.647106
O       7.59894      9.50520     15.39223        -0.284380     -0.013772     -0.168629
O       7.59765      9.43698      6.80721        -0.371841      0.260809     -0.408103
O       7.58249      9.41360     11.21778         0.970230     -0.183907     -0.600790
O      11.39765      1.85350      2.61642        -0.950427      0.457808      0.020393
O      11.35422      1.96431     15.27467        -0.421076     -0.193229      0.234950
O      11.48322     13.42151      2.59090        -0.616202     -0.211181     -0.079826
O      11.44190     13.21700     15.29723        -1.023074      0.486288     -0.285112
O      11.30812      1.95879      6.81255         0.126899     -0.436176      0.334247
O      11.44008     13.17880      6.85399         0.150424      0.503486     -0.493093
O      11.40307      1.95877     11.07264         0.007220      0.188873     -0.230818
O      11.37525     13.15394     11.29258         0.787645      0.686996     -0.887838
O      11.26735      5.74464      2.50359         0.402294     -0.305530      0.168401
O      11.29970      5.59211     15.29817         0.587684     -0.125052      0.015786
O      11.28230      5.77585      6.80679         0.682698     -0.997154     -0.411795
O      11.40343      5.65557     11.25193        -0.226715     -0.100191     -0.992539
O      11.35874      9.59657      2.64965         1.129918     -0.435438     -0.051295
O      11.27775      9.61851     15.59140         1.294487     -0.917851     -1.078970
O      11.44306      9.61585      6.82441        -1.182698     -0.504713     -0.282012
O      11.36993      9.64555     11.22543        -0.043982     -0.274038     -0.380307
O       1.94707      3.86430      2.64069        -0.589980     -1.338864     -0.204679
O       1.69058      3.86528     15.34893         0.466612     -0.487462     -0.169765
O       1.86249     15.16927      2.26841         0.091270      0.547078      0.931131
O       2.02007      0.01863     15.30981        -0.438710     -0.115159      0.179822
O      13.23293      3.85212      2.69345        -0.016211     -1.177723      0.018985
O      13.26692      3.78600     15.33404         0.149206      1.063111      0.101681
O      13.36830     15.17021      2.39224         0.264207     -0.053649      0.620940
O      13.31650      0.02700     15.37593        -0.584131     -0.413555     -0.125558
O       1.86354      3.73182      6.74073        -0.033218      0.688731     -0.087312
O       1.77203      0.05191      6.70821         0.506187      0.431147     -0.223361
O      13.17113      3.76947      6.92807        -0.125565      0.926271     -0.744238
O      13.27224     15.15959      6.96572         0.144576      0.075195     -0.669733
O       1.74318      3.80490     11.12161        -0.255438      0.286336      0.027881
O       1.98533      0.03479     10.97021        -0.420785     -0.247363      0.232944
O      13.33691      3.85479     11.06787         0.317330      0.115717     -0.397888
O      13.20271      0.00185     11.08919        -0.244322     -0.025045     -0.492622
O       1.79814      7.58462      2.56418         0.229045      0.031694     -0.437134
O       1.96819      7.64316     15.36856        -0.217236     -0.853196      0.069339
O      13.26674      7.58510      2.51656        -0.075722      0.386594      0.064509
O      13.04223      7.56543     15.45822         0.376286      0.013237     -0.299338
O       1.88808      7.54337      6.73261         0.119026     -0.333219      0.585973
O      13.23859      7.59820      6.67403        -0.279594     -0.050032     -0.035732
O       2.03771      7.67203     11.10344        -0.039506     -1.134621     -0.120064
O      13.12642      7.62885     11.05954         0.237026      0.065268      0.225502
O       1.97501     11.33956      2.63437         0.150820      0.989678     -0.176067
O       1.76493     11.38676     15.30025         0.013329     -0.455892     -0.468899
O      13.28984     11.47730      2.58594        -0.171329     -1.372848     -0.017872
O      13.29764     11.38434     15.27224         0.406473     -0.192721     -0.050724
O       2.03344     11.36133      6.82145        -0.785130     -0.363070     -0.316277
O      13.33331     11.37672      6.82823         0.322928     -0.058841      0.065074
O       1.89200     11.47514     11.05102        -0.396325      0.155789     -0.202368
O      13.28076     11.42392     11.01902         0.623800     -0.356142      0.215057
O       5.76047      3.76118      2.60600        -0.098127      1.502192     -0.039031
O       5.82812      3.79010     15.11909        -0.399250      0.826164      0.255815
O       5.63137      0.03683      2.33881        -0.264811     -0.043437      0.870194
O       5.48695      0.02260     15.29451         0.272030     -0.290879      0.355877
O       5.65744      3.84468      6.70487         0.394598     -0.999779      0.099482
O       5.77636      0.05765      6.75970        -0.956009     -0.440233     -0.252136
O       5.82480      3.72107     11.02334         0.046964      1.024706      0.170084
O       5.62632      0.00759     10.96710         0.090810     -0.239555      0.156574
O       5.68387      7.59125      2.49828         0.107454     -0.142282      0.119508
O       5.73464      7.67231     15.20149        -0.412993     -1.628491      0.157702
O       5.64475      7.59759      6.95371         0.226092     -0.329180     -0.522004
O       5.44513      7.62872     11.05253         0.484644     -0.042417     -0.215734
O       5.74941     11.45604      2.60725        -0.222637     -0.684509     -0.438375
O       5.68428     11.41124     15.46901         0.764284     -0.182484     -0.933290
O       5.62844     11.36930      6.78386         0.218589     -0.030638     -0.252252
O       5.84299     11.38384     11.17650        -0.229668      1.521273     -0.542731
O       9.34627      3.74292      2.57194         0.415956      0.480470     -0.282379
O       9.33513      3.74143     15.34124         0.236391      0.746743     -0.172653
O       9.57356      0.05060      2.69165        -0.165867     -0.310539     -0.253245
O       9.60128     15.19543     15.34414        -0.045874     -0.007650     -0.610375
O       9.38566      3.75843      6.98647         0.281398      0.858842     -0.478902
O       9.42651     15.17913      6.78127         0.419328      0.236537     -0.080212
O       9.34405      3.72474     10.99697         0.343107      0.752509      0.006087
O       9.58770     15.18381     11.09148         0.348958     -0.540746      0.157982
O       9.40512      7.50479      2.81577         0.402163      1.146557     -0.592409
O       9.55556      7.58476     15.22484        -0.273217     -0.104094      0.399987
O       9.52954      7.57387      6.66304        -0.321705      0.408998     -0.156689
O       9.61138      7.65260     11.12442        -0.348495     -0.770516     -0.255554
O       9.55563     11.52647      2.66786        -0.213414     -0.762732     -0.440168
O       9.44588     11.42525     15.51402        -0.211135      0.459615     -0.589573
O       9.46531     11.40936      6.91770        -0.004648     -0.617825     -0.273795
O       9.41353     11.40950     10.90110        -0.369440     -1.359331     -0.048748
