  # total energy = -7879.55559185 
CRSYTAL
PRIMVEC
    15.6000000000000000    0.0000000000000000    0.0000000000000000
     0.0000000000000000   15.6000000000000000    0.0000000000000000
     0.0000000000000000    0.0000000000000000    17.640000000000000
PRESSURE
-6.10098 -5.81651 -6.83504 0.090429 -0.225772 0.029032
PRIMCOORD
320 1
Pb       3.94612      3.89865      4.30858         0.080339      0.361660     -0.149041
Pb       3.88114      3.75308     17.58537        -0.119520      0.408364     -0.302445
Pb       3.91307      0.01816      4.43450         0.156457     -0.300089     -0.576631
Pb       3.95765      0.02575     17.56350        -0.177761     -0.609147      0.098956
Pb      15.53945      3.84183      4.31405         0.500562      0.143602     -0.121816
Pb      15.58744      3.75819     17.52520        -0.356523      0.790711      0.080105
Pb       0.01070      0.03616      4.35508         0.132127     -0.430624     -0.677301
Pb       0.08461     15.56094      0.03068        -0.018839     -0.159923     -0.297780
Pb       3.89114      3.84543      8.76458        -0.347588      0.769975     -0.370384
Pb       3.87133      0.02255      8.79104         0.033331     -0.287571     -0.404603
Pb       0.04932      3.82621      8.80297        -0.084658      0.067688     -0.682515
Pb       0.01441      0.09008      8.85854        -0.143861     -0.612932     -0.347312
Pb       3.79993      4.00437     13.14661         0.228925      0.391865     -0.263875
Pb       3.94329      0.08845     13.20311         0.032026     -0.174092     -0.063841
Pb      15.59309      3.85944     13.25352        -0.255784      0.266649     -0.052084
Pb      15.55910     15.57488     13.21830        -0.079335     -0.097219     -0.442798
Pb       3.88031      7.79451      4.23046         0.443104     -0.172073      0.173105
Pb       3.84773      7.78648     17.59286         0.045983     -0.181145     -0.531535
Pb      15.54819      7.63180      4.40877        -0.467491      0.138080     -0.478573
Pb      15.50583      7.77512     17.61794         0.278534     -0.485240     -0.423196
Pb       3.81014      7.75878      8.77299        -0.455678     -0.181751     -0.352442
Pb       0.06062      7.84675      8.67214        -0.103131     -0.339372     -0.015351
Pb       3.87751      7.88072     13.19905         0.580689     -0.980299     -0.745234
Pb      15.51543      7.79363     13.18280        -0.139955     -0.416142     -0.199322
Pb       3.90245     11.60121      4.32464         0.245544     -0.302073     -0.247510
Pb       3.86372     11.65096     17.54865         0.078388      0.204434      0.163138
Pb       0.06459     11.68163      4.44672        -0.437526     -0.381625     -1.003254
Pb       0.02711     11.58183      0.04527         0.125326      0.509972     -0.109140
Pb       3.88460     11.73583      8.75765        -0.016562      0.003517     -0.595454
Pb       0.02821     11.52700      8.75626        -0.059682      0.919651      0.203604
Pb       3.94797     11.53905     13.21193        -0.678279      0.781687      0.129883
Pb       0.07957     11.65427     13.25376        -0.198036      0.630370     -0.559535
Pb       7.77002      3.92393      4.30178         0.091061      0.058439     -0.350963
Pb       7.84985      3.84815     17.60947         0.256674     -0.087695     -0.432507
Pb       7.89571     15.59637      4.39436        -0.618867     -0.016927     -0.293150
Pb       7.79653     15.48973     17.60000         0.165706      0.216813     -0.139864
Pb       7.92379      3.89901      8.75502        -0.320029      0.095578     -0.611765
Pb       7.73283      0.01841      8.73199        -0.188342     -0.135164     -0.581287
Pb       7.62179      3.80812     13.18402         0.175729      0.500160     -0.329474
Pb       7.77092     15.58027     13.14362        -0.266247     -0.225694     -0.219461
Pb       7.69059      7.76128      4.33404         0.109346     -0.249095     -0.204487
Pb       7.78638      7.74307     17.51794        -0.007832     -0.113007     -0.371313
Pb       7.83616      7.82729      8.78745        -0.007543     -0.153106     -0.352836
Pb       7.86976      7.66891     13.23557        -0.548678      0.166771     -0.655976
Pb       7.70153     11.59903      4.31294         0.005925     -0.009623      0.256670
Pb       7.78836     11.66340     17.53728        -0.354632      0.493123     -0.140082
Pb       7.76460     11.62076      8.70583         0.040541      0.575777     -0.390010
Pb       7.74828     11.57722     13.21794         0.250752      0.374811     -0.468091
Pb      11.69396      3.85154      4.28938        -0.516836      0.080464     -0.189934
Pb      11.58725      3.87627     17.54632         0.376694      0.142885     -0.308518
Pb      11.78497      0.05999      4.34566        -0.125278     -0.690370     -0.628732
Pb      11.82420      0.05174     17.56242        -0.710850     -0.339924      0.009107
Pb      11.71106      3.89294      8.78783         0.200790     -0.232345     -0.234730
Pb      11.55489     15.59655      8.81144         0.402055     -0.370794     -0.259022
Pb      11.63610      3.82172     13.20874         0.084260      0.465577     -0.333513
Pb      11.71471      0.08144     13.24776        -0.447484     -0.164544     -0.352644
Pb      11.62786      7.84458      4.41559         0.167310     -0.110558     -0.412385
Pb      11.80879      7.85878      0.00329        -0.422352     -0.264846      0.029473
Pb      11.78125      7.79415      8.79554         0.059280     -0.294593     -0.493746
Pb      11.66656      7.86437     13.19350        -0.062723     -0.295680     -0.504655
Pb      11.70080     11.67200      4.54654         0.108285      0.143056     -0.746268
Pb      11.57432     11.74829      0.12126         0.130663      0.690323     -0.657881
Pb      11.56265     11.75486      8.88864         0.100020      0.582388     -0.697701
Pb      11.76582     11.67902     13.35222        -0.235981      0.032287     -0.947452
Ti       1.91959      1.95738      2.38797        -0.114965     -0.916921     -0.512208
Ti       1.87543      1.89650     15.62177         0.334582     -0.212646     -0.991610
Ti       1.89003     13.57218      2.29417        -0.089331      0.463706     -0.693719
Ti       1.92320     13.61419     15.68778        -0.214860     -0.423922     -0.966434
Ti      13.62494      1.91753      2.32966         0.007336     -0.876064      0.418050
Ti      13.64008      1.93784     15.57329        -0.509869      0.783177     -1.280728
Ti      13.59577     13.53659      2.31402        -0.526635      0.441942      1.094291
Ti      13.56508     13.63302     15.55774         0.931079      0.248419      0.128402
Ti       1.90792      1.86388      6.73136        -0.560906      0.554464     -0.249106
Ti       1.91145     13.60004      6.69765        -0.148666      0.684669      1.184594
Ti      13.62382      1.85940      6.68061        -0.313392      0.539929      0.798068
Ti      13.65915     13.66872      6.80454        -0.469237     -0.203788      0.167206
Ti       1.88274      1.94609     11.21498         0.081544      0.514781     -1.425988
Ti       1.89975     13.70588     11.22495        -0.497790     -0.726775     -0.576705
Ti      13.58946      1.98076     11.24695        -0.066223      0.373748     -0.072257
Ti      13.51880     13.70872     11.27596         0.849534     -0.627270     -2.507141
Ti       1.97135      5.79321      2.35257         0.631292     -0.160915     -0.225875
Ti       1.94660      5.76255     15.57467        -0.652424      0.683098     -0.604568
Ti      13.61933      5.72299      2.34994         0.163693      1.598605     -1.062125
Ti      13.58670      5.89815     15.63412         1.679595     -1.618516     -1.080118
Ti       1.85864      5.82046      6.67177         0.901524     -0.160173      1.524433
Ti      13.58729      5.79361      6.73757         0.862640      0.731671     -0.507724
Ti       1.82243      5.86511     11.18221         1.313134      0.524814     -1.341109
Ti      13.63028      5.85907     11.10694        -1.025233     -0.245782     -0.715925
Ti       1.91189      9.66363      2.32538         0.114336      0.555483      0.534511
Ti       1.85931      9.70390     15.54605         0.233631      0.210715      1.934361
Ti      13.58995      9.72049      2.31352         0.849858     -0.587575      0.414870
Ti      13.60783      9.84472     15.65643        -0.198989     -0.640731     -0.583561
Ti       1.93354      9.77750      6.67077         0.767645     -0.752534     -0.286019
Ti      13.55647      9.83745      6.86499         0.352032     -0.915045     -0.780567
Ti       1.88684      9.78683     11.26130         0.322055     -0.968767     -2.039004
Ti      13.57711      9.77691     11.12867         0.898902      0.814076     -0.064513
Ti       5.81673      1.90018      2.35001         0.580295     -0.393510     -0.363455
Ti       5.79640      1.96190     15.64487         0.395332     -0.910182     -0.572526
Ti       5.75476     13.59147      2.41736         0.188104      0.264071     -1.529737
Ti       5.81181     13.62039     15.57913        -0.151233      0.454925      0.972049
Ti       5.71241      2.05339      6.75365         1.441399     -1.143379     -0.362702
Ti       5.78640     13.66308      6.81369         0.281615     -0.082700     -1.827016
Ti       5.81924      2.01078     11.15580        -0.537049     -1.032690     -0.296409
Ti       5.65969     13.61200     11.22923         1.063015      1.120520     -0.336710
Ti       5.87454      5.79889      2.16874        -0.368131      0.619455      0.368333
Ti       5.82124      5.81448     15.61699        -0.081185      0.439166     -1.729392
Ti       5.88106      5.90229      6.74232        -0.914094     -0.281582      0.107958
Ti       5.83465      5.88668     11.09348        -0.887183      0.592289      0.841156
Ti       5.85269      9.66280      2.28459        -0.679144      0.430784     -0.026413
Ti       5.78966      9.77994     15.49853         0.815091     -0.941069     -0.025512
Ti       5.78237      9.66361      6.80670        -0.451844      1.212196     -1.162194
Ti       5.84873      9.83186     11.10621        -0.160902     -1.672311     -0.337040
Ti       9.70853      1.89801      2.36007        -0.665522     -0.180091     -1.131306
Ti       9.73668      1.93331     15.57038        -0.273530     -0.216649     -0.850919
Ti       9.62521     13.53682      2.42194         0.680742      0.553580     -1.949698
Ti       9.72150     13.67826     15.48191        -0.121946      0.414437      0.088235
Ti       9.75731      1.90789      6.70032        -0.784844      0.464586     -1.347446
Ti       9.69112     13.69491      6.65813         0.401616     -1.229862      0.875389
Ti       9.70002      1.93782     11.15831         0.442172     -0.152561      0.240158
Ti       9.61082     13.67404     11.18022         0.043654     -0.100487     -0.645964
Ti       9.81932      5.84447      2.30136        -0.852262     -0.247569     -1.560951
Ti       9.80571      5.89893     15.54011        -0.492509     -0.832364     -0.558844
Ti       9.74440      5.79551      6.77719        -0.663466      0.492494     -1.105739
Ti       9.68703      5.79116     11.14828         0.781972      0.410631     -0.851465
Ti       9.73584      9.68798      2.28263        -0.200859     -0.400255     -0.295419
Ti       9.75916      9.75820     15.60230        -0.294058     -0.057699     -1.658181
Ti       9.71289      9.72859      6.81002        -0.443010      0.172323     -0.748894
Ti       9.74275      9.79596     11.17502        -0.478465      0.035925     -0.337825
O       1.75161      1.93465      0.60725         0.723583      0.303263     -0.206487
O       1.83836      1.96251     13.84604         0.060506     -0.202301      0.068052
O       1.89728     13.54677      0.49550        -0.052947      0.267283      0.520237
O       1.91448     13.44116     13.92213        -0.383658      0.421354      0.183829
O      13.55709      1.91619      0.59529         0.179331      0.047705     -0.512482
O      13.56189      2.01251     13.71371         0.236393     -0.226939      1.435907
O      13.39524     13.57470      0.59152         0.352819     -0.085329     -0.600955
O      13.63434     13.68396     13.76267        -0.278417     -0.268184      0.820151
O       1.88676      1.74324      4.92386        -0.034562      0.295025      0.897417
O       1.78217     13.84873      4.97072         0.168644     -0.602194     -0.575094
O      13.55541      1.81794      4.91584         0.220225      0.421146     -0.274386
O      13.59159     13.59250      5.04099         0.306113     -0.055235     -0.020883
O       1.79029      2.04146      9.33754         0.174947     -0.243938      1.788555
O       1.99819     13.53834      9.46991         0.131907      0.402149      0.526088
O      13.55778      2.08423      9.49924         0.304205     -0.474590     -0.311154
O      13.51568     13.75677      9.42640        -0.193170      0.169363      1.124837
O       2.09001      5.71108      0.62485        -0.222634      0.043059     -0.858377
O       1.92768      5.85720     13.78984        -0.189504     -0.345946      0.326627
O      13.58733      5.77398      0.56626         0.062312     -0.147987      0.548392
O      13.82053      5.77319     13.85785        -0.640978      0.700999      0.417207
O       1.87735      5.81230      4.96210        -0.109690      0.212261     -1.388386
O      13.66213      6.02576      4.89150        -0.168489     -0.738608      1.212639
O       1.90249      5.96996      9.35456        -0.116248     -0.483814      0.681714
O      13.54803      5.87453      9.29210         0.137140     -0.168728      1.097485
O       1.88715      9.71257      0.57458        -0.013771     -0.093411     -0.063216
O       1.76834      9.93048     13.82790         0.482938     -0.722332     -0.579891
O      13.68666      9.70841      0.51546        -0.552772      0.050337      0.605129
O      13.47646      9.75048     13.83227         0.650941      0.239826      1.315012
O       2.08572      9.80611      4.88308        -0.632446      0.118244      0.264739
O      13.55531      9.84466      5.07200        -0.214506     -0.149263      0.526986
O       1.78697      9.55040      9.41595         0.426476      0.947632      1.559384
O      13.75600      9.72647      9.32166        -0.598357     -0.067791      1.044052
O       5.81273      1.93415      0.54332        -0.315546      0.103851      0.691539
O       5.69753      1.74174     13.86458         0.621839      0.772917      0.425309
O       5.78791     13.56267      0.59253         0.054627     -0.037408      1.280886
O       5.85290     13.69857     13.87853        -0.070748      0.018138     -1.389197
O       5.78188      1.92459      4.98779        -0.257448      0.427827      0.179675
O       5.79731     13.74689      5.01492        -0.072513     -0.313703      0.168442
O       5.81622      1.84750      9.39366        -0.068626      0.352739      0.179037
O       5.71486     13.60039      9.44142        -0.294896      0.002174      0.118546
O       5.88009      5.86633      0.37590        -0.416805     -0.427256      0.295748
O       5.74846      5.82779     13.77318         0.406220     -0.153812      0.769186
O       5.85662      6.01388      4.99566         0.257489     -0.564756     -0.198183
O       5.87110      5.92978      9.34679         0.086851      0.022405     -0.340702
O       5.75936      9.83740      0.54968         0.257654     -0.387241     -0.544294
O       5.88306      9.71052     13.70233        -0.268358      0.434787      1.164943
O       5.70044      9.73698      4.99032         0.304589     -0.167267      0.385974
O       5.80912      9.77918      9.26602         0.079251      0.150542      1.401729
O       9.49009      1.87319      0.56744         1.041509      0.253923      0.598447
O       9.82627      1.88209     13.74349        -0.358196      0.336154      0.999616
O       9.65309     13.47459      0.47939         0.076388     -0.105682      2.079507
O       9.72849     13.86332     13.70563        -0.136467     -0.640443      0.729075
O       9.69278      1.89836      4.83908         0.431732      0.211203      1.505654
O       9.60984     13.59639      4.89874         0.158721      0.157401     -0.311083
O       9.79494      1.85926      9.39518        -0.514437      0.301575     -0.409600
O       9.65715     13.73101      9.35786         0.216315     -0.186773      1.338467
O       9.68198      5.82373      0.46954         0.281591      0.072216      1.063867
O       9.91340      5.84198     13.73784        -0.824176      0.214082      0.854882
O       9.74547      5.82059      4.99179         0.061384     -0.162708     -0.197391
O       9.59124      5.78409      9.30263         0.065759      0.095074      0.842873
O       9.76733      9.51938      0.47217        -0.040283      1.044541      0.832656
O       9.78384      9.71929     13.73383        -0.013962     -0.234774      1.404620
O       9.61451      9.77702      5.02936         0.616342     -0.068102      0.362399
O       9.75970      9.77951      9.36230        -0.130042     -0.313681      1.084770
O       3.96443      1.90119      2.84015        -0.663929      0.444110     -0.364854
O       3.82764      1.87877     16.02366        -0.215856      0.167031      0.267649
O       3.77197     13.61650      2.71068         0.681777     -0.105734      0.331568
O       3.85941     13.67899     15.94883        -0.215261     -0.524547      0.399781
O      15.58106      1.99744      2.68997        -0.379369      0.166780      0.563364
O      15.54891      1.85644     16.04858        -0.506070      0.034801     -0.118157
O      15.56197     13.65450      2.58673        -0.341939     -0.331473      0.546850
O      15.46766     13.67717     15.96137        -0.181431     -0.232354      0.345928
O       3.76985      1.98868      7.18608         0.599210     -0.361167     -0.010364
O       3.83946     13.57314      7.08873        -0.060664      0.544490      0.528803
O      15.53785      1.89531      7.21305         0.082901      0.030047     -0.280836
O       0.04728     13.64260      7.19889        -0.866724     -0.095287     -0.028684
O       3.81011      2.04575     11.50779         0.148159     -0.243001      0.201551
O       3.80393     13.73783     11.70721         0.408739     -0.611820     -0.070505
O      15.57039      1.96457     11.63018         0.028180     -0.126257     -0.051277
O      15.54799     13.73082     11.48056         0.791535      0.126665      0.895000
O       3.98722      5.80387      2.73933        -0.657704     -0.314069      0.108106
O       3.85424      5.78903     15.79811        -0.729850     -0.171484      1.158282
O       0.04940      5.81056      2.73304        -0.474389     -0.038904      0.272335
O       0.00462      5.83279     16.02294        -0.232087      0.014370      0.462660
O       3.93046      5.81575      7.08280        -0.791601      0.298212      0.458258
O      15.52884      5.86587      7.09451         0.155710     -0.063486     -0.220481
O       3.91388      5.74266     11.50104        -0.050334      0.321905      0.217381
O      15.55029      5.99169     11.51777        -0.699777     -0.240999      0.073130
O       3.90534      9.78991      2.66046        -0.616108     -0.063583      0.316311
O       3.86967      9.81281     15.97694        -0.266983     -0.558623     -0.529595
O      15.50786      9.78174      2.77468         0.329992     -0.676610      0.012472
O      15.56008      9.86595     16.11419        -0.211972     -1.103233     -0.777889
O       3.83405      9.64402      7.18234         0.379426      0.550284      0.217416
O       0.03772      9.79576      7.14272        -0.577723      0.023374     -0.270027
O       3.90810      9.72703     11.62196        -0.419658      0.455540     -0.049955
O       0.04249      9.71870     11.70389        -0.883377     -0.074752     -0.260519
O       7.77351      1.98003      2.68364        -0.459444     -0.060948      0.711492
O       7.80082      1.90443     16.06476        -0.657125      0.186354     -0.696649
O       7.71670     13.59135      2.74090         0.364756      0.089575      0.152012
O       7.76173     13.57062     16.01885         0.567181      0.418613     -0.274125
O       7.75747      1.93030      6.97843         0.601640     -0.058932      0.765658
O       7.76777     13.66302      7.12049         0.206124      0.074938      0.383831
O       7.73264      1.90044     11.62093         0.047306      0.270431     -0.088474
O       7.65555     13.58371     11.58895         1.128228      0.316959      0.085289
O       7.71454      5.93523      2.69619         0.964414     -0.267370      0.154773
O       7.70724      5.71877     15.88717         1.103548      0.358412      0.069441
O       7.77760      5.67567      7.07545         0.095789      0.341119      0.545795
O       7.69767      5.89476     11.54889         0.791075     -0.434313      0.408538
O       7.76753      9.64772      2.68626         0.506653     -0.119063      0.043196
O       7.75518      9.69368     15.91131         0.322513      0.256523      0.146789
O       7.71889      9.80956      7.16891         0.791592     -0.221643      0.316988
O       7.75859      9.80788     11.47852         0.354674      0.253432      0.100286
O      11.64182      1.95571      2.69087         0.483266      0.009581      0.286136
O      11.72328      1.99870     15.96952        -0.635647     -0.176687      0.274938
O      11.66077     13.66779      2.70145        -0.375044     -0.516265      0.471328
O      11.62100     13.67953     15.98922         0.238913     -0.421936     -0.171574
O      11.69754      1.94402      7.15896        -0.294922     -0.072332     -0.218595
O      11.62394     13.57878      7.07296         0.528110      0.441209      0.307205
O      11.58638      1.99835     11.52450         0.580743     -0.135802      0.488506
O      11.69216     13.58784     11.63353        -1.013133      0.262411      0.116481
O      11.70712      5.73055      2.67459        -0.197779      0.099434      0.367376
O      11.69123      5.81520     15.89548        -0.547324      0.152532      0.459681
O      11.60512      5.81015      7.13122         1.457682      0.140781      0.201872
O      11.61717      5.85568     11.45157         0.476359     -0.036872      0.069844
O      11.62737      9.77991      2.81898         0.022932     -0.404496     -0.341649
O      11.71346      9.72951     16.04699        -0.773492     -0.266330      0.014352
O      11.64738      9.68241      7.29863         0.309347      0.304344     -0.375318
O      11.72201      9.84047     11.71598        -0.456015     -0.374852     -0.969328
O       2.05666      3.86932      2.80321        -0.394345     -0.146651      0.262298
O       1.75773      3.79302     15.93134         0.808833      0.601037      0.348196
O       1.85033      0.06799      2.62628         0.191640     -0.873105      0.413844
O       1.85171     15.56243     15.99071         0.053774     -0.049908      0.353271
O      13.67693      3.85385      2.80636        -0.313806     -0.183453      0.147226
O      13.59435      3.88935     15.95580         0.337676     -0.529842      0.411147
O      13.62662     15.58364      2.74217        -0.086489      0.123161     -0.040655
O      13.53328      0.03899     15.93872         0.122261     -0.696430      0.028908
O       1.88162      3.87043      7.02627        -0.220171      0.047760      0.373204
O       1.89698     15.58870      7.30849         0.311631      0.057317     -0.329219
O      13.67355      3.84260      7.09549        -0.419373      0.747673     -0.221841
O      13.59695     15.59343      7.07675         0.143906     -0.044544      0.323975
O       1.80234      3.98653     11.62888         0.151123     -0.983908     -0.074055
O       1.95991      0.03986     11.57128        -0.385643      0.380351     -0.028776
O      13.55757      3.93400     11.54167         0.477306      0.557003      0.233609
O      13.59152      0.06788     11.67025        -0.021034     -0.116287      0.009979
O       2.10352      7.72536      2.57144        -0.749568      0.678745      0.537528
O       1.84796      7.74525     15.91982         0.377452      1.042067      0.220965
O      13.56926      7.70925      2.60543         0.081074      0.794163      0.560872
O      13.60752      7.74399     16.08802         0.335657      1.095375     -0.176470
O       1.91083      7.87029      6.97928        -0.258819     -1.081111      0.394350
O      13.62161      7.80968      7.15759        -0.331561     -0.344630      0.085427
O       2.06322      7.71625     11.52790        -0.373230      1.217680      0.979535
O      13.56458      7.83208     11.56755         0.105888      0.098198     -0.010537
O       1.84081     11.62280      2.69384         0.157931      0.799414      0.297625
O       1.84966     11.63607     16.11474         0.248710      0.150889     -0.169042
O      13.53417     11.59074      2.81061         0.256026      0.993142     -0.300940
O      13.53916     11.66825     16.06625        -0.043753      0.726815     -0.467073
O       1.97569     11.70381      7.13993        -0.189701     -0.310505     -0.205890
O      13.63058     11.70535      7.22052        -0.044519      0.033569      0.174941
O       1.96465     11.66476     11.64877        -0.195312      0.177704     -0.154869
O      13.68876     11.73409     11.44533        -0.108686     -1.112405      0.579166
O       5.88021      3.95811      2.76112        -0.163837     -1.079497     -0.163936
O       5.68467      3.82473     15.88757         0.371227     -0.213737      0.418486
O       5.79054     15.55215      2.75206         0.177755      0.235818     -0.073305
O       5.72709     15.54729     16.08002         0.755208      0.321851     -0.030270
O       5.74751      3.88032      7.23621         0.238897     -0.129863     -0.226901
O       5.76775      0.01430      7.10425        -0.335541      0.280272      0.912792
O       5.81814      3.88347     11.51876         0.509318     -0.080482      0.148704
O       5.80017     15.57393     11.60974        -0.327479      0.349412      0.069371
O       5.70942      7.73568      2.58168         0.427985      0.666635      0.237330
O       5.80313      7.73112     15.89389        -0.221251      1.112184      0.378758
O       5.90639      7.80734      7.01237         0.225951     -0.351646      0.954608
O       5.85322      7.92144     11.58292        -0.242639     -0.613829     -0.310183
O       5.89313     11.60442      2.76145        -0.497811      0.838023      0.260117
O       5.86059     11.68106     15.91638        -0.259901     -0.489291      0.000196
O       5.80908     11.72312      7.05909        -0.170321     -0.257510      0.775949
O       5.74666     11.74717     11.74624         0.122169     -0.802574     -0.649872
O       9.76696      3.92649      2.56207        -0.405230     -0.264226      0.865446
O       9.71092      3.87940     15.90080         0.198842      0.097173      0.440184
O       9.67238     15.54263      2.70393        -0.054649      0.031785      0.177873
O       9.78151      0.04513     15.89006        -0.314878     -0.663965      0.419438
O       9.75626      3.84742      7.13711        -0.029088     -0.607870      0.189322
O       9.77736     15.56227      7.08514        -0.264137      0.901630      0.039421
O       9.66360      3.89353     11.50522        -0.403840     -0.104646      0.250291
O       9.74682     15.58689     11.44395        -0.342797     -0.108381      0.465948
O       9.80486      7.74413      2.65028         0.057477      0.457787      0.566682
O       9.67463      7.76600     15.94863         0.220347     -0.039464     -0.275303
O       9.67107      7.78784      6.96926        -0.168353     -0.115807      1.050211
O       9.68441      7.72830     11.55640         0.084601      1.107312      0.013072
O       9.65226     11.61949      2.75737         0.122062      0.102247     -0.347728
O       9.74681     11.68360     15.64677        -0.013505     -0.154681      0.892721
O       9.85544     11.70343      7.20619        -0.944215     -0.231763     -0.060561
O       9.70440     11.69644     11.47736         0.072675     -0.100759      0.321377
