  # total energy = -7880.87405474 
CRSYTAL
PRIMVEC
    15.6000000000000000    0.0000000000000000    0.0000000000000000
     0.0000000000000000   15.6000000000000000    0.0000000000000000
     0.0000000000000000    0.0000000000000000    17.640000000000000
PRESSURE
-4.60295 -4.68418 -3.07435 -0.13944 0.241186 -0.035383
PRIMCOORD
320 1
Pb       3.82213      3.92286      4.29067         0.490514      0.212478      0.191262
Pb       3.80945      3.77253     17.55506         0.204385      0.399274     -0.340401
Pb       4.07556      0.08965      4.34742        -0.347133      0.215657      0.386467
Pb       3.96760     15.49093     17.47571         0.113462     -0.043609      0.024500
Pb      15.59974      3.88065      4.33106         0.307240     -0.031930     -0.011463
Pb      15.49448      3.88073     17.61037        -0.001814      0.056300     -0.350094
Pb      15.57668     15.56459      4.36992        -0.290318      0.242909      0.180014
Pb       0.18490     15.49885     17.49481        -0.675628      0.165150      0.253723
Pb       3.96296      3.79557      8.70953        -0.105229      0.232560     -0.077568
Pb       3.86080     15.54877      8.75156         0.305955     -0.065706     -0.134832
Pb      15.56417      3.82958      8.69284         0.394680     -0.259888      0.197439
Pb       0.03841     15.43926      8.93983        -0.094151      0.528627     -0.643025
Pb       3.75767      4.05268     13.15112         0.071932     -0.698408      0.121855
Pb       3.77572     15.54756     13.13701         0.175524      0.346398      0.577695
Pb      15.47619      3.84051     13.14064         0.125845     -0.286327      0.120484
Pb       0.00040     15.59062     13.11079         0.183372      0.394636      0.087923
Pb       3.80446      7.73271      4.29099         0.616762      0.163497      0.572860
Pb       3.72592      7.73996     17.59599         0.541124     -0.041477      0.073296
Pb      15.46775      7.80293      4.43059         0.620301      0.108745     -0.200967
Pb      15.49708      7.74065      0.03248        -0.412824     -0.012827     -0.484486
Pb       3.92247      7.76240      8.71795        -0.024334      0.047632     -0.301916
Pb       0.01309      7.69234      8.76009         0.004228      0.179192     -0.386239
Pb       3.86940      7.75641     13.19007         0.044823     -0.041246     -0.134200
Pb      15.40535      7.83370     13.19338         0.507152     -0.336008      0.087006
Pb       3.88894     11.71629      4.32265        -0.334012     -0.356204     -0.066176
Pb       3.91916     11.64130     17.59868         0.054827      0.432550      0.391475
Pb      15.53611     11.64699      4.44929         0.269560      0.010197     -0.321325
Pb      15.54653     11.62900      0.11686         0.193156     -0.017705     -0.711534
Pb       3.87634     11.64558      8.68835        -0.377956     -0.126947     -0.095521
Pb      15.56088     11.67109      8.80507         0.246464     -0.134421     -0.413003
Pb       3.90003     11.72596     13.19090        -0.086986     -0.421683      0.434938
Pb       0.04341     11.62177     13.15666        -0.100084     -0.028142     -0.147294
Pb       7.79571      4.06095      4.31205        -0.526427     -0.404649      0.040877
Pb       7.73320      3.80429     17.49103         0.702990      0.474152      0.114301
Pb       7.91805      0.04995      4.28091         0.037145      0.690117      0.625233
Pb       7.89782     15.50262     17.59400        -0.277385     -0.156011     -0.426661
Pb       7.89557      3.87116      8.73684         0.048308     -0.331588      0.000176
Pb       7.73104     15.48716      8.71712         0.015618      0.401444      0.545401
Pb       7.66580      3.91638     13.05043         0.248609     -0.474201     -0.008396
Pb       7.68897     15.45295     13.22156         0.299284      0.090694     -0.068198
Pb       7.68825      7.93579      4.32418        -0.065606     -0.277798     -0.135958
Pb       7.81666      7.81753     17.61829        -0.471384     -0.349263      0.012789
Pb       7.81699      7.77049      8.76647        -0.228207      0.119916     -0.171343
Pb       7.68803      7.68598     13.11758         0.300120      0.631639      0.241633
Pb       7.76230     11.83328      4.34701         0.294496     -0.810879      0.257542
Pb       7.73608     11.70885      0.05951         0.200216      0.090582     -0.869178
Pb       7.68560     11.67004      8.89635         0.669714     -0.154857     -0.412005
Pb       7.85907     11.55803     13.22164        -0.201979     -0.164608      0.249377
Pb      11.55335      4.02008      4.37581        -0.181711     -0.095147     -0.344847
Pb      11.72775      3.99330     17.51070        -0.124843     -0.058314      0.110233
Pb      11.74489      0.06602      4.39670         0.345127     -0.254592      0.019659
Pb      11.68055      0.00386     17.55431        -0.004463     -0.207172     -0.164182
Pb      11.68502      3.88817      8.78666        -0.129784      0.262155      0.019529
Pb      11.65843     15.56196      8.84615         0.623577     -0.437809      0.129766
Pb      11.54216      3.91302     13.21569         0.247220     -0.319569     -0.493743
Pb      11.72112     15.48929     13.16966         0.007135      0.567852     -0.079065
Pb      11.62273      7.81165      4.36686        -0.259504      0.200640     -0.192948
Pb      11.60059      7.87766     17.62185         0.697487     -0.127272     -0.476368
Pb      11.74544      7.74114      8.77215        -0.066928     -0.221759     -0.206763
Pb      11.66130      7.82083     13.20517        -0.390727      0.060819     -0.147889
Pb      11.74179     11.94710      4.44562         0.266529     -0.175772     -0.136801
Pb      11.73104     11.77092      0.01484        -0.594151     -0.328826     -0.810557
Pb      11.67191     11.65104      8.70619         0.166333      0.449855     -0.416175
Pb      11.77979     11.71626     13.09007        -0.302864     -0.566323      0.407346
Ti       1.96000      1.87227      2.37050        -0.272036      1.929543     -0.309480
Ti       1.92015      1.96771     15.65278        -0.198094     -0.431423     -3.109525
Ti       2.00204     13.69882      2.48363        -0.123929     -0.827772      0.764957
Ti       1.92211     13.57549     15.49379         0.573435      0.350353     -0.721357
Ti      13.65274      2.02334      2.37594        -0.124064     -0.675035     -0.723135
Ti      13.63585      1.83698     15.57235         0.180525      0.345106     -1.958042
Ti      13.75696     13.70731      2.31779        -0.409233      0.043719      2.081468
Ti      13.67113     13.56612     15.65911        -0.308537     -0.019879      0.058023
Ti       2.03265      1.81552      6.74819        -0.971752      0.528543      0.706116
Ti       2.01774     13.59908      6.61166         0.326240     -0.530487      1.873047
Ti      13.64105      1.90892      6.96251         1.856338     -0.509134      0.873279
Ti      13.78405     13.65794      6.77573        -0.755579     -0.356818      0.764965
Ti       1.91451      1.96908     11.17552         0.363556     -0.128243     -0.284818
Ti       2.02882     13.59753     11.22964        -0.186464     -0.190197     -0.286663
Ti      13.56533      1.84726     11.21503        -0.050215      0.705836      0.026442
Ti      13.69381     13.55911     11.18524        -0.122562     -0.015221     -2.119643
Ti       1.87551      5.87917      2.38271         0.162517     -0.737125     -0.484614
Ti       1.85623      5.92626     15.64886        -0.023505     -0.717548     -0.262005
Ti      13.52912      5.86473      2.49434         0.439702     -0.147648     -1.623119
Ti      13.67756      5.78516     15.51922        -0.541726      0.357005      1.001690
Ti       1.90572      5.78422      6.77776         0.537088      0.020529     -0.708225
Ti      13.62389      5.81894      6.59146        -0.538791     -0.464987      1.528221
Ti       1.79757      5.88617     11.08046         0.090047     -0.694392     -0.567989
Ti      13.59228      5.75686     11.20341        -0.921485      0.251413     -0.124817
Ti       1.86934      9.75850      2.39174         0.759822      0.430795      0.787436
Ti       1.97268      9.81871     15.66364        -0.526820     -0.395553      0.472515
Ti      13.62546      9.75224      2.36754        -0.088207      0.105788     -0.308384
Ti      13.72650      9.73670     15.56825        -1.287132     -0.504740      0.366678
Ti       1.88383      9.70302      6.79816         0.295044      0.384827     -1.051263
Ti      13.62009      9.64181      6.74198         0.290503      1.326452      0.761152
Ti       1.90870      9.67484     11.13580         0.286175      0.563504     -1.547091
Ti      13.64640      9.67043     11.16417        -0.388317     -0.027973      0.276496
Ti       5.91960      1.98262      2.26004         0.316580      0.598270      1.185103
Ti       5.92909      1.85746     15.60693        -0.368965      0.212293      0.430320
Ti       5.97087     13.72759      2.53361        -1.934645     -0.305982     -2.523011
Ti       5.83325     13.58603     15.54853         0.342049      0.369250      0.384786
Ti       5.94411      1.91382      6.74930        -0.052378      0.452455      1.231426
Ti       5.91676     13.59768      6.71611        -0.610605      0.526287     -0.269383
Ti       5.80148      1.76044     11.21030         0.122848      0.502034      0.255762
Ti       5.88290     13.47283     11.23843         0.314123      0.544823      0.072611
Ti       5.86618      5.90602      2.25912        -1.082395     -0.608405     -0.155289
Ti       5.82148      5.84069     15.67085        -0.037133      0.154247     -1.064057
Ti       5.85663      5.88293      6.83869         0.173562     -0.781977     -0.474889
Ti       5.72940      5.77119     11.19002         0.119433      0.567918     -0.422848
Ti       5.80762      9.81265      2.34125        -0.515648     -0.548879     -0.221861
Ti       5.80327      9.75327     15.67318         0.981203     -0.255820      0.500309
Ti       5.86746      9.76613      6.73048        -0.668661     -1.035291      2.005245
Ti       5.69876      9.70123     11.09520         1.251827     -0.209049     -0.084860
Ti       9.81315      1.86888      2.30010        -0.952509      0.444148      1.306563
Ti       9.84442      1.91303     15.52376        -0.479821      0.368499     -0.710364
Ti       9.82573     13.64273      2.40966         0.685493      1.434630     -0.879255
Ti       9.80052     13.65481     15.49009        -0.916446     -0.876254      0.883910
Ti       9.85419      1.79740      6.85516        -0.970091      1.339621      1.022286
Ti       9.74181     13.64855      6.76313         0.917407     -0.814655      0.111203
Ti       9.68872      1.82836     11.24223         0.167456      1.088830      0.390233
Ti       9.73534     13.62838     11.24869        -0.278863     -1.060726     -0.434720
Ti       9.63442      5.88994      2.37713         0.113239      0.796115     -1.444579
Ti       9.74209      5.92522     15.59463         0.053597     -0.502252      0.371220
Ti       9.73807      5.85508      6.77901         0.129397     -0.466277     -0.432906
Ti       9.69297      5.87930     11.12950         1.093641     -0.537545     -0.416525
Ti       9.87665      9.84101      2.42370        -1.219873     -0.386832      0.731561
Ti       9.70717      9.77572     15.68554         0.933829      0.810118     -0.503088
Ti       9.67042      9.72895      6.76521         0.354789      0.732189      0.705432
Ti       9.70940      9.77193     11.15491        -0.311399     -0.545091      1.273784
O       1.83715      1.96918      0.58278         0.351083     -0.235216      0.172222
O       1.86196      1.88310     13.76107         0.042352      0.051778      1.812804
O       2.08782     13.68718      0.78196        -0.251075      0.138190     -1.290047
O       2.00238     13.53521     13.70413        -0.766232      0.083155      0.357393
O      13.57551      2.04432      0.62036         0.185987     -0.080985      0.264253
O      13.66347      1.88522     13.72646         0.127105     -0.329673      1.077507
O      13.72296     13.71146      0.62094        -0.297279     -0.202223     -1.861742
O      13.64534     13.45039     13.93830         0.171231      0.170471     -1.208736
O       2.04237      1.89357      4.99498        -0.246888      0.183430      0.146220
O       1.94357     13.53542      4.89939         0.128806      0.190591     -0.977405
O      13.82613      1.71905      5.29208        -0.243783      0.063873     -2.013143
O      13.79563     13.73140      5.00427        -0.132043     -0.264140      0.171847
O       1.86989      1.87102      9.41707         0.797069     -0.054141      0.567355
O       2.13933     13.61205      9.47206        -0.307227     -0.093263      0.438067
O      13.61804      1.87581      9.45703        -0.015847      0.030840     -0.075808
O      13.77893     13.53299      9.37021        -0.196201      0.137811      1.319936
O       1.74649      5.85294      0.58072         0.416355     -0.034076      0.663534
O       1.88233      5.80264     13.90191         0.190578      0.326513      0.326252
O      13.58681      5.77007      0.69010         0.400474      0.177958      0.801948
O      13.64161      5.71063     13.79166         0.179503      0.566747     -0.697737
O       1.99379      5.78768      4.97831        -0.296850     -0.080043      1.084880
O      13.57080      5.89992      4.84483        -0.142932     -0.253631     -0.379357
O       1.75786      5.83673      9.27930         0.264258      0.331869      1.085004
O      13.43042      5.80155      9.45532         0.293607      0.110317      0.035980
O       1.87404      9.79162      0.64212        -0.084328     -0.255092     -0.208653
O       2.05466      9.76749     13.96284        -0.274424     -0.063477     -0.956590
O      13.68327      9.56701      0.58244        -0.103914      0.684825      1.184234
O      13.76449      9.79394     13.77249         0.045578     -0.129194      0.537399
O       1.81913      9.76395      5.00174         0.282872     -0.144999      0.325795
O      13.65803      9.81004      5.00377        -0.159772     -0.144876     -0.070070
O       1.81623      9.83707      9.30796         0.242832     -0.821307      1.612338
O      13.70874      9.57392      9.41513        -0.146342      0.278192      0.159842
O       5.93438      1.71860      0.52131        -0.209351      0.752754      0.257580
O       5.83444      1.79138     13.89508         0.307157      0.189437     -0.723954
O       5.86061     13.72613      0.66220         0.158323      0.067192      1.889069
O       5.81542     13.47194     13.82214         0.367954      0.386130     -0.547830
O       5.93893      2.06599      5.05911        -0.089326     -0.314982     -1.007078
O       5.95319     13.62121      4.92034        -0.029416     -0.069426      0.390875
O       5.80051      1.77190      9.47708        -0.087158      0.042229     -0.061643
O       5.99275     13.40729      9.47702        -0.323403      0.283436      0.082136
O       5.89636      5.86690      0.49746        -0.165453     -0.006108      0.184148
O       5.71306      5.87437     13.79593         0.096993     -0.350585      1.398608
O       5.93508      5.88451      5.09618        -0.034780     -0.017679     -0.055586
O       5.71812      5.98124      9.43547         0.303591     -0.608773      0.738537
O       5.79009      9.90265      0.56113         0.112545     -0.175781      0.808746
O       5.84842      9.87890     13.95778        -0.222044     -0.535229     -0.159307
O       5.72878      9.53327      5.04162         0.496427      0.636143     -1.114809
O       5.86111      9.67462      9.30003        -0.262163      0.057423      1.359277
O       9.78293      1.84343      0.60301         0.110831      0.129474     -0.909230
O       9.97041      1.87174     13.73927        -0.520695     -0.054138      0.941051
O       9.79281     13.66190      0.63739        -0.026701     -0.112674      0.401891
O       9.76012     13.58209     13.73973         0.363322      0.278019     -0.098503
O       9.92642      1.81514      5.15151        -0.139738     -0.008873     -1.072373
O       9.80873     13.86251      5.00296        -0.226646     -0.534175      0.173556
O       9.69713      1.92779      9.50698         0.260351     -0.426701     -0.657361
O       9.68482     13.42232      9.48940         0.028683      0.611599      0.334156
O       9.54089      5.91027      0.59772         0.365277      0.164261      0.150699
O       9.85982      6.03944     13.85562        -0.340143     -0.484649      0.760876
O       9.73100      5.84432      4.96256         0.265999     -0.014047      0.504829
O       9.74815      5.79045      9.31698         0.073289      0.293384      1.108263
O       9.84589      9.91080      0.70117        -0.075677     -0.056430     -0.564660
O       9.78450      9.63442     13.95864        -0.391929      0.299972     -0.454187
O       9.73006      9.84840      5.05486        -0.014538     -0.359947     -1.038952
O       9.67340      9.76557      9.43257         0.148563     -0.155043     -0.623053
O       4.02706      2.00876      2.83885        -0.689341     -0.248022     -0.861418
O       3.85204      1.89216     15.96480        -0.278768      0.245579      0.487570
O       3.91948     13.77310      2.92027         0.329210     -0.240081     -0.059735
O       3.82442     13.67714     15.73544         0.523742      0.057761      1.153858
O      15.53071      2.07777      2.80882         0.746580     -0.357574     -0.141732
O      15.49096      1.79209     15.93628         0.803100      0.496565      0.630883
O       0.04528     13.64871      2.77681         0.293539      0.013239      0.022385
O      15.57073     13.50415     16.10445         0.451475      0.118077     -0.202563
O       3.90290      1.99013      7.25416         0.187939     -0.284301     -0.260280
O       4.01787     13.42834      7.14626        -0.080115      0.492338     -0.298136
O       0.13255      1.80674      7.41650        -0.511539     -0.250717     -0.650822
O       0.19109     13.68534      7.08995        -1.189181     -0.017380      0.374005
O       3.89874      1.82709     11.69486         0.054202      0.000572     -0.577655
O       3.95050     13.61201     11.66987        -0.341967      0.082270     -0.360330
O       0.03839      1.87662     11.52308        -0.670692      0.146487      0.471020
O      15.55073     13.51407     11.51862         1.216063      0.155094      0.458892
O       3.90905      5.74044      2.70923        -0.313018      0.299234     -0.074378
O       3.79836      5.83776     16.13908        -0.317628     -0.192405     -0.260150
O      15.59431      5.94093      2.82006        -0.127982     -0.452284      0.122634
O      15.55744      5.74628     16.05473        -0.000231      0.352002     -0.022582
O       3.93838      5.75015      7.16537        -0.754537      0.124588      0.130637
O      15.42810      5.84859      7.11589         1.080735     -0.170182     -0.213033
O       3.82732      5.91805     11.62921         0.142950     -0.390970     -0.309366
O      15.51160      5.82039     11.49267         0.424506     -0.213659      0.221612
O       3.88399      9.86161      2.79476        -0.299011     -0.609666     -0.139601
O       3.94639      9.73488     16.14311        -1.085189     -0.092674     -0.149503
O      15.49190      9.77455      2.87511         0.713438     -0.384683     -0.478039
O      15.55637      9.81815     16.07918         0.464712      0.533191     -0.040520
O       3.89206      9.64226      7.19611         0.218323      0.300807     -0.058701
O       0.01059      9.70995      7.11482        -1.096091     -0.252137      0.377501
O       3.85704      9.62761     11.53221        -0.196709     -0.412018     -0.084793
O       0.06644      9.62521     11.65788        -0.689066      0.679559     -0.196632
O       7.87787      1.97537      2.84951         0.083868     -0.135306     -0.515890
O       7.88695      1.94331     15.94682        -0.423629     -0.232717     -0.043286
O       7.82952     13.62810      2.85712         0.069884      0.266500     -0.322983
O       7.79185     13.72508     15.93989        -0.007311     -0.272990      0.093566
O       7.82247      1.69151      7.19457         0.484688      0.654361     -0.067407
O       7.83402     13.68837      7.14919        -0.450270     -0.221144     -0.089657
O       7.80381      1.92605     11.61806        -0.594968     -0.160851      0.406868
O       7.83594     13.47177     11.73144        -0.723403      0.129305     -0.248801
O       7.70060      5.97621      2.74443         0.770372      0.295791      0.442834
O       7.71211      5.89330     15.92939         1.206727     -0.248834     -0.016787
O       7.89354      5.77744      7.18873        -0.789008      0.328214      0.318250
O       7.77406      5.82789     11.59454        -0.430861     -0.218226     -0.161466
O       7.72553      9.78571      2.79379         0.225029      0.427124     -0.044164
O       7.78514      9.79340     16.19604        -0.542854      0.020508     -0.292932
O       7.76291      9.65886      7.21055         0.560802     -0.486966     -0.361949
O       7.70350      9.78950     11.66121         0.275446     -0.460802     -0.527759
O      11.65503      1.88663      2.80934         0.798929      0.505089      0.138480
O      11.71728      2.00987     15.94191        -0.134472     -0.820780      0.505267
O      11.75039     13.87285      2.82396         0.269977     -0.949714     -0.088660
O      11.63363     13.67778     15.96590         0.657446     -0.228492      0.420366
O      11.80922      1.82293      7.31667        -1.817745      0.077751      0.040192
O      11.74593     13.48334      7.03930        -0.561700      0.115684      0.364087
O      11.69077      1.88995     11.62490         0.128331     -0.527270     -0.197477
O      11.71268     13.56684     11.49802         0.013241      0.060211      0.510454
O      11.62901      5.79400      2.68902         0.177232      0.809222      0.748129
O      11.75186      5.87755     16.10533        -1.008855      0.364246     -0.490854
O      11.68486      5.68950      7.12947         0.456867      0.394428     -0.124780
O      11.63259      6.00010     11.60328         0.177118     -0.860121     -0.037557
O      11.69607      9.82999      2.81392         0.551948     -0.111839      0.126537
O      11.74339      9.63188     16.02062        -0.337710      0.377503      0.334027
O      11.72161      9.78647      7.17379        -0.262530     -0.273085      0.075265
O      11.66878      9.65223     11.61619         0.318064      0.394374     -0.464425
O       1.96336      3.87225      2.85580        -0.423119      0.122548     -0.307146
O       1.80906      3.83411     15.89727         0.455673      0.004054      0.782176
O       1.95333      0.11860      2.79118         0.018179     -1.214490      0.088683
O       1.85061     15.50536     15.87333         0.091721      0.078792      0.498443
O      13.60027      3.94473      2.85461        -0.021615     -0.656734      0.251687
O      13.58060      3.85470     15.80967         0.408676      0.039906      0.951340
O      13.82978     15.59726      2.80169        -0.619274      0.989897     -0.118206
O      13.58650     15.50705     15.88036        -0.039704      0.397915      0.510776
O       1.86424      3.89372      7.24904         0.204707     -0.014597     -0.462619
O       2.17655     15.49887      7.11943        -0.103841      0.157276     -0.194575
O      13.69177      3.81638      7.14473        -0.252211      0.599059     -0.113079
O      13.58956     15.44046      7.37203         0.582812      0.264403      0.008477
O       1.98608      3.91395     11.51339        -0.157875      0.069526      0.049757
O       1.97612     15.51165     11.54632        -0.409176     -0.074474      0.221922
O      13.52478      3.86457     11.66737         0.390556     -0.001658     -0.387251
O      13.68190     15.52170     11.50033        -0.102511     -0.138449      0.489117
O       2.01747      7.75352      2.86428        -0.661413      0.583616     -0.854870
O       1.73704      7.89962     16.06014         0.935966     -1.222200      0.051922
O      13.60163      7.82414      2.91012        -0.332250      0.213234     -0.364955
O      13.71757      7.77460     15.95189         0.272656     -0.133903     -0.120104
O       1.84304      7.73142      7.14593         0.332685     -0.389325      0.214890
O      13.59579      7.73363      7.08043        -0.292772      0.094926     -0.029759
O       1.85598      7.69979     11.62134         0.249688      0.646942     -0.286386
O      13.66034      7.78660     11.63309         0.074435      0.010759     -0.002563
O       1.95140     11.63522      2.69918        -0.144952      0.676979      0.543718
O       1.99796     11.71776     16.02396        -0.223685     -0.092161      0.321137
O      13.64948     11.75283      2.73155        -0.185442     -0.335049     -0.031694
O      13.48576     11.64978     16.07123         0.599548      0.136492      0.315125
O       1.95565     11.63852      7.11976         0.168997      0.561859      0.147393
O      13.74833     11.68180      7.34470        -0.040871     -0.159575     -0.897229
O       2.06150     11.55728     11.61436        -0.629434      0.505812     -0.136566
O      13.66069     11.63214     11.59100         0.084226     -0.429941     -0.114946
O       6.00354      3.94269      2.71831        -0.313010     -0.493859     -0.428966
O       5.87771      3.84940     16.09794        -0.677661      0.048396     -0.320280
O       5.89014      0.10428      2.89683         0.510180     -0.828095     -0.413428
O       5.83164     15.58110     16.02764         0.101874     -0.425890     -0.148987
O       5.99894      3.82228      7.27316        -0.440020      0.163655      0.097477
O       5.81784     15.53973      7.13717        -0.343463     -0.653968      0.027396
O       5.79207      3.79151     11.57902        -0.037854      1.042057     -0.039386
O       6.02305     15.42371     11.56651        -0.689077      0.615193      0.177193
O       5.66658      7.79975      2.77683         0.748175      0.489777     -0.443499
O       5.79405      7.71219     16.06510        -0.146347      0.955503     -0.145450
O       5.85689      7.72077      7.30068         0.216242      0.453132     -0.231086
O       5.83933      7.78571     11.70378        -0.345397      0.005507     -0.584156
O       5.77528     11.73747      2.78396         0.593373      0.426952      0.274080
O       5.81865     11.75563     16.06619        -0.026908     -0.474736      0.300392
O       6.00826     11.61667      7.18425        -0.408136      0.748059     -0.620769
O       5.66920     11.59998     11.64819         0.696646     -0.272060     -0.524959
O       9.70097      4.09430      2.71246         0.089753     -2.254446      0.534319
O       9.79465      3.88465     15.99032        -0.278457      0.695353     -0.361822
O       9.77067     15.56295      2.70770        -0.493311      1.070747      0.370375
O       9.75674     15.57621     16.04463         0.377030      0.430842     -0.404896
O       9.72805      3.80905      7.25152         0.284747     -0.584617     -0.284529
O       9.79233     15.52210      7.38233         0.365075     -0.244986     -0.357695
O       9.76180      3.84875     11.58699        -0.118521      0.832532      0.275097
O       9.71428     15.51568     11.65795         0.078613     -0.136568     -0.195313
O       9.74385      7.90925      2.78458         0.254468      0.076063      0.144483
O       9.68610      7.90933     16.13746         0.047282     -1.815016      0.122039
O       9.78450      7.73842      7.16332         0.138709      0.495084      0.023061
O       9.72802      7.73124     11.64755        -0.660664      0.815131     -0.504683
O       9.88644     11.87745      2.88539        -0.472789     -2.001833      0.265497
O       9.72588     11.72101     16.04268         0.196738      0.275259      0.079046
O       9.62858     11.67037      7.14302         0.320563      0.176839      0.043763
O       9.68626     11.61749     11.69468         0.751119     -0.139713     -0.260022
