  # total energy = -7880.43149032 
CRSYTAL
PRIMVEC
    15.2000000000000000    0.0000000000000000    0.0000000000000000
     0.0000000000000000   15.2000000000000000    0.0000000000000000
     0.0000000000000000    0.0000000000000000    17.000000000000000
PRESSURE
7.69022 7.36466 4.66156 -0.015307 0.083123 -0.011372
PRIMCOORD
320 1
Pb       3.75054      3.85188      4.22156         0.106789     -0.379471      0.281757
Pb       3.72134      3.81911      0.08203         0.232106     -0.297148     -0.219548
Pb       3.72023      0.00172      4.32834         0.330298      0.312317     -0.124597
Pb       3.86106     15.19834      0.03304        -0.190543     -0.379093     -0.350953
Pb      15.08564      3.89303      4.20442         0.538586     -0.449085      0.026183
Pb      15.15578      3.68009     16.98963         0.216848      0.445997     -0.525162
Pb       0.01205      0.05627      4.18387        -0.163884     -0.200290      0.441180
Pb       0.03135      0.01397     16.88697        -0.050742     -0.312274      0.247865
Pb       3.76223      3.67216      8.50508         0.069737      0.413669     -0.173693
Pb       3.73978     15.16897      8.45421         0.148736     -0.129846      0.278097
Pb      15.08661      3.82494      8.42945         0.381759     -0.615002      0.866302
Pb       0.04969     15.14636      8.66409        -0.570089      0.202972     -0.621185
Pb       3.77341      3.84772     12.79706        -0.145240     -0.758856     -0.357056
Pb       3.81521     15.09757     12.64759         0.032199      0.338163      0.397330
Pb       0.06060      3.54926     12.78145        -0.479496      1.002208     -0.173859
Pb       0.01990     15.14077     12.67711        -0.481025     -0.152132      0.114388
Pb       3.63962      7.67118      4.24961         0.530984      0.019306     -0.157368
Pb       3.92121      7.57095      0.07826        -0.560321      0.237828      0.525890
Pb      15.18805      7.60427      4.16739         0.406188      0.850543      0.500898
Pb       0.19159      7.66379     16.98836        -0.503636     -0.225002     -0.399121
Pb       3.69744      7.56073      8.48104         0.374352      0.012113     -0.300012
Pb      15.14307      7.55212      8.52325         0.156580      0.070032     -0.431200
Pb       3.85369      7.61944     12.70078        -0.120414      0.155085      0.055622
Pb      15.15495      7.53623     12.68142        -0.344170      0.223522      0.387495
Pb       3.68007     11.44602      4.24465         0.533812     -0.420332      0.432959
Pb       3.80796     11.36846      0.05532         0.420115      0.478638     -0.688468
Pb      15.13321     11.42939      4.21092        -0.072673     -0.653813     -0.023148
Pb       0.07227     11.42168     16.99153        -0.284936      0.121174     -0.287047
Pb       3.79671     11.32783      8.42899        -0.309590      0.366522     -0.013184
Pb      15.04592     11.35067      8.50661         0.778097      0.254191     -0.023866
Pb       3.81451     11.31930     12.73605        -0.061110      0.197912     -0.177771
Pb       0.02294     11.37413     12.60927        -0.326129     -0.273789      0.571549
Pb       7.59546      3.75254      4.12751         0.356156      0.593124      1.001474
Pb       7.56605      3.77124     16.94107        -0.005983      0.037936      0.316906
Pb       7.60856      0.09956      4.22864        -0.130828     -0.181757     -0.535634
Pb       7.56196      0.00737      0.01567         0.186515     -0.263634      0.200793
Pb       7.61802      3.91206      8.35971        -0.375394     -1.007276      0.484936
Pb       7.55375     15.13488      8.34566         0.192718      0.103932      1.172132
Pb       7.49765      3.73785     12.69267         0.658982      0.042651     -0.045369
Pb       7.66373      0.09845     12.67366        -0.310105     -0.829093      0.058986
Pb       7.55185      7.68521      4.42999         0.007369     -0.471737     -1.070044
Pb       7.44440      7.55729     16.92830         0.788919      0.212057      0.437359
Pb       7.63429      7.54906      8.49364        -0.428343      0.743844     -0.090679
Pb       7.69267      7.49820     12.79580        -0.940104      0.416574     -0.321694
Pb       7.63840     11.41446      4.16074        -0.550158     -0.075283      0.236186
Pb       7.69893     11.34765     16.99135        -0.844972     -0.128378     -0.253422
Pb       7.51780     11.36710      8.33578         0.648582      0.266242      1.085474
Pb       7.51713     11.22432     12.72128         0.025324      0.631039      0.089140
Pb      11.46270      3.61202      4.20547        -0.448719      0.957267      0.131034
Pb      11.45066      3.80737      0.01409         0.095159      0.290476     -0.514535
Pb      11.36440      0.02503      4.22124        -0.087447     -0.153986     -0.596014
Pb      11.38563     15.12851     16.88627        -0.038212      0.282222      0.803381
Pb      11.29781      3.77696      8.47337         0.581032      0.082009     -0.164592
Pb      11.29441     15.14327      8.49555         0.249630      0.376779      0.803937
Pb      11.43468      3.81197     12.78294         0.137528     -0.268931     -0.419953
Pb      11.36786     15.12434     12.85663         0.100847      0.336259     -0.859123
Pb      11.39698      7.69389      4.22906        -0.305705     -0.346960      0.268683
Pb      11.29307      7.51855      0.00705         0.369087      0.126375     -0.713681
Pb      11.32599      7.56922      8.34405         0.421640     -0.295011      0.936758
Pb      11.27652      7.42557     12.66468         1.010890      0.593643      0.277868
Pb      11.43557     11.48457      4.17914         0.020942     -0.558468      0.009571
Pb      11.31059     11.37158      0.09571         0.512654      0.132096     -0.777091
Pb      11.32972     11.41245      8.53036        -0.574910      0.286105     -0.080898
Pb      11.46403     11.38926     12.96285         0.007312     -0.305664     -1.054263
Ti       1.90140      1.85713      2.23543         0.242554      0.023794     -0.099171
Ti       1.89452      1.89062     14.94323         0.454962     -0.992296     -0.252477
Ti       1.90203     13.31361      2.26902        -0.584753      0.834291     -0.228978
Ti       1.88607     13.32329     15.02263         0.989397     -0.727061      0.151218
Ti      13.34040      1.90703      2.11015        -0.941674     -0.550965      0.383601
Ti      13.27345      1.84039     14.94822         0.605081      0.740769      0.138161
Ti      13.30218     13.37552      2.25642        -0.034137     -0.836247     -0.577392
Ti      13.24734     13.27910     15.04205         0.691596     -0.665183      1.357207
Ti       1.89305      1.87295      6.52863        -0.208325      0.485043      0.115814
Ti       1.80073     13.28573      6.48873         0.276552     -0.110137      1.187196
Ti      13.31837      1.85071      6.47028        -0.080122      0.273781      1.094928
Ti      13.21649     13.36054      6.50225         0.231415      0.017527      1.528658
Ti       1.90114      1.85123     10.68188         0.468020      0.952917      1.360310
Ti       1.85740     13.23899     10.69854        -0.078048     -0.852433     -0.853411
Ti      13.30040      1.87503     10.76268        -0.939557     -0.434200      0.376259
Ti      13.14624     13.22396     10.70758         0.319310      0.961863      0.906406
Ti       1.91132      5.66002      2.26318         0.209073      0.594468      0.914648
Ti       1.94331      5.71217     15.01233        -0.964353     -0.007866      0.540246
Ti      13.32308      5.82140      2.23506        -0.447940     -1.526305     -0.510243
Ti      13.40668      5.67477     15.04821        -0.656228      0.618402     -0.944215
Ti       1.92617      5.69701      6.53103        -0.543958      0.039414      0.226484
Ti      13.35379      5.68888      6.46657        -1.203712      0.179341      1.399675
Ti       1.91127      5.65168     10.75368        -1.229863     -0.479160      0.195617
Ti      13.33586      5.62787     10.71777        -0.387796     -0.427457     -0.472044
Ti       1.93036      9.57448      2.18558        -1.025270     -0.805889      1.905859
Ti       1.93737      9.53092     14.97414        -0.065474     -0.285564      0.816561
Ti      13.24430      9.49546      2.13799         1.147705      0.455549      1.167581
Ti      13.29928      9.51340     14.99548         0.437569     -0.724701     -0.635845
Ti       1.89700      9.53901      6.45658        -0.475426     -0.332439     -0.517231
Ti      13.26663      9.55047      6.53999         0.928586     -0.620817     -1.015919
Ti       1.88050      9.43080     10.61804        -0.354565      0.544723      0.832374
Ti      13.18911      9.46623     10.62573         0.503362      0.076449      1.921917
Ti       5.70029      1.90414      2.28519         0.277605     -0.645995      0.057794
Ti       5.67458      1.85485     14.96516        -0.315419     -0.104811      0.131846
Ti       5.66645     13.29035      2.31612         0.218802      0.265412     -0.797558
Ti       5.78321     13.29298     14.95859        -1.492161     -0.982862      0.615489
Ti       5.72833      1.88665      6.49205        -0.678840      0.693673      0.061116
Ti       5.63438     13.30111      6.45393        -0.475179     -0.645875     -0.276219
Ti       5.71211      1.86646     10.64130        -0.502886      0.012422      0.357463
Ti       5.61120     13.28554     10.63190         1.961023     -0.345854      0.982576
Ti       5.74634      5.66245      2.30738        -0.095332      1.350676     -0.842046
Ti       5.61002      5.63609     15.07889         0.339257      0.288326      0.054195
Ti       5.63300      5.74174      6.42240        -0.080604     -0.621920      0.484499
Ti       5.64423      5.58840     10.70229         0.372446      1.583468      0.864114
Ti       5.72892      9.49702      2.25445        -1.084159     -0.815373     -0.102642
Ti       5.65063      9.48099     15.01889         0.638067      0.437154      0.612476
Ti       5.68212      9.49939      6.48060        -0.059100     -0.577120      0.274400
Ti       5.71457      9.46634     10.62114         0.026799     -0.045932      1.761799
Ti       9.58494      1.99401      2.11107        -1.947093     -1.315839      0.777916
Ti       9.54838      1.88427     15.01310        -0.362007     -0.169659     -0.029956
Ti       9.46691     13.32359      2.21238        -0.150976      0.667141      0.878587
Ti       9.43860     13.24847     14.97090         0.043682      0.151444      0.356614
Ti       9.53317      1.83500      6.44088        -0.426403      1.214088      1.654380
Ti       9.44289     13.29718      6.37779         0.467310     -0.223714      0.665999
Ti       9.53367      1.90918     10.67536         0.279369     -0.084653      1.036391
Ti       9.40040     13.28754     10.84253        -0.509874     -0.537220     -0.599838
Ti       9.60493      5.77511      2.25808        -1.499064     -1.240219      1.497815
Ti       9.47960      5.62007     14.97603         0.868274      0.994742      0.109498
Ti       9.42330      5.70963      6.48210         1.255901     -0.382028     -2.109259
Ti       9.43271      5.68851     10.69354         0.541473     -0.657960      1.058782
Ti       9.47783      9.49953      2.12967        -0.394049     -0.531404      0.552900
Ti       9.51063      9.40821     14.92115        -0.530002      0.232232      1.752905
Ti       9.54745      9.52473      6.40812        -2.622040     -0.020952      0.113027
Ti       9.47198      9.55505     10.71670        -0.259583     -0.091323     -0.140529
O       1.78807      1.78717      0.46535         0.238273      0.242448      0.247478
O       1.89794      1.87146     13.12335         0.295437     -0.242244      0.427748
O       1.81771     13.28765      0.48878         0.188897      0.285772      0.287960
O       2.02265     13.13372     13.24597        -0.360390      0.552890     -0.497685
O      13.26248      1.88544      0.33792         0.374116     -0.049764      0.369033
O      13.28479      1.93047     13.17466        -0.007211     -0.347877     -0.008049
O      13.33023     13.46452      0.49895        -0.096115     -0.718366     -0.016281
O      13.17668     13.21916     13.32711        -0.014105     -0.163577     -1.535084
O       1.94012      1.88128      4.74398        -0.480831     -0.058326      0.193217
O       1.88890     13.30692      4.74199        -0.409599      0.111348     -0.535923
O      13.28361      1.90969      4.68511        -0.069186     -0.225186      0.005638
O      13.24006     13.19409      4.76008        -0.238507      0.462248     -0.728357
O       1.87034      1.91956      8.95243         0.040309     -0.361401     -1.110170
O       1.84800     13.25794      8.89312        -0.029665     -0.033794      0.904146
O      13.23754      1.85874      9.00977         0.196698      0.158531     -0.391560
O      13.19526     13.27200      8.93705        -0.155491     -0.047172      0.089867
O       1.90065      5.71011      0.54308        -0.402390     -0.360038     -0.891502
O       2.05664      5.76795     13.26942        -0.323850     -0.391533     -0.452753
O      13.41424      5.78740      0.46602        -0.308400     -0.150177     -0.044664
O      13.30183      5.63466     13.25899        -0.053485      0.122219     -0.075472
O       1.84633      5.67122      4.76439        -0.005637     -0.272279     -0.531671
O      13.44942      5.68596      4.71538        -0.422967     -0.045432     -0.586357
O       1.97260      5.73880      8.98464        -0.342702      0.037615     -0.317291
O      13.30770      5.53552      8.87784         0.130967      0.622175      1.568839
O       1.99869      9.55278      0.46087        -0.582210     -0.099107     -0.740304
O       1.89799      9.48830     13.22345         0.138066      0.167971     -0.689775
O      13.15100      9.36635      0.41563         0.512192      0.266020     -0.542472
O      13.35095      9.62192     13.17439        -0.181931     -0.034454      0.962643
O       1.94383      9.54316      4.64472        -0.321502      0.034327      0.660578
O      13.26202      9.51823      4.74274        -0.230017     -0.026444      0.855102
O       1.88494      9.48747      8.85919         0.208436     -0.263115     -0.154811
O      13.10251      9.50556      8.87087         0.421162      0.174852     -0.688070
O       5.82061      1.79385      0.51351        -0.259586      0.478528     -0.272892
O       5.58024      1.84828     13.18204         0.248766      0.074532      0.746297
O       5.69059     13.34268      0.51312        -0.171298     -0.204256      0.900557
O       5.69913     13.36496     13.20645        -0.227349     -0.147154     -0.120368
O       5.57085      1.94269      4.72327         0.362485     -0.299219     -0.303017
O       5.67114     13.23768      4.67515         0.033825      0.305691      0.312853
O       5.80650      1.83504      8.89355        -0.465487      0.340014     -0.271616
O       5.57700     13.23962      8.87554         0.346099      0.040209     -0.362539
O       5.62266      5.66433      0.40331         0.737839     -0.215562      1.241637
O       5.64961      5.66072     13.30559        -0.440190     -0.145382      0.023697
O       5.63126      5.62508      4.65051        -0.041097      0.249701      0.406834
O       5.62934      5.70253      8.97460         0.154827     -0.028087     -0.402146
O       5.69417      9.44469      0.44139         0.177326      0.266465      0.743964
O       5.77226      9.36114     13.26447        -0.580005      0.387418     -0.149092
O       5.72688      9.39931      4.73161        -0.019065      0.210317     -0.808812
O       5.68018      9.57033      8.88713        -0.151732     -0.452038     -0.484661
O       9.56431      1.87930      0.35334        -0.222431      0.448154     -0.320733
O       9.64784      1.95392     13.24150        -0.562547     -0.324688      0.060780
O       9.52936     13.30247      0.47202        -0.091633     -0.222649     -0.601291
O       9.34583     13.30596     13.21832         0.460211      0.065888     -0.008844
O       9.57951      1.76832      4.72023         0.066526      0.066503     -1.042906
O       9.46480     13.24943      4.59318         0.184304      0.374422      0.581250
O       9.45201      1.99930      8.93564         0.097664     -0.321574     -0.606095
O       9.30683     13.27399      9.06094         0.726102     -0.139826     -0.158674
O       9.59825      5.63151      0.51801        -0.069215      0.007795     -1.018477
O       9.57770      5.77040     13.18189        -0.177017     -0.669821      0.264950
O       9.43700      5.80946      4.67353         0.194441     -0.070476      1.175317
O       9.33467      5.75703      8.94023         0.314450     -0.224347     -0.898634
O       9.47591      9.53106      0.33741         0.231873     -0.178795      0.932750
O       9.39558      9.33890     13.19935         0.329141      0.278843     -1.162703
O       9.33606      9.36785      4.61658         0.631833      0.374594      0.576932
O       9.44397      9.54972      8.92035         0.154400     -0.077827      0.419161
O       3.80412      1.77095      2.55242        -0.311639      0.678706     -0.026188
O       3.76401      1.84423     15.44237         1.197467     -0.440202     -0.247242
O       3.74164     13.31483      2.70933         0.407346     -0.002973     -0.422598
O       3.76512     13.34889     15.46375         1.107327      0.067276     -0.198036
O      15.13825      1.79170      2.55656         0.285375      0.249589     -0.022132
O       0.01674      1.83047     15.23767        -0.614050      0.098173      0.348826
O      15.14939     13.34225      2.70923         0.165198      0.320780     -0.141437
O      15.18973     13.21108     15.35324         0.213409      0.141367      0.020004
O       3.76769      1.95799      6.82520         0.002604     -0.458991      0.506216
O       3.77019     13.17211      6.77595        -0.379484      0.310449      0.101722
O      15.18753      1.71529      7.00910        -0.378951      0.503384     -0.905801
O      15.07030     13.42196      6.97850         0.614776     -0.224796     -0.615890
O       3.77148      2.04048     10.97764         0.255314     -0.354471      0.080483
O       3.83209     13.04950     11.01646        -1.401125      0.613545      0.315283
O       0.00112      1.73265     11.14273         0.278003     -0.208100     -0.101363
O      15.06586     13.31594     11.12355         1.416673      0.279955     -0.296497
O       3.78972      5.67337      2.56348        -0.538478     -0.668154      0.307610
O       3.71401      5.69171     15.59393         1.470953     -0.773388     -0.729827
O      15.16107      5.72211      2.65202         0.435424     -0.419421     -0.074227
O       0.06778      5.54797     15.36729         0.462073      0.390644      0.327871
O       3.79981      5.71457      6.89556        -0.340718     -0.261683     -0.134914
O      15.19026      5.69570      6.99394         0.139700      0.312887     -0.574689
O       3.71919      5.52985     11.14091         1.561734      0.641040     -0.094426
O      15.17276      5.69932     11.23883         0.271867      0.132005     -0.669355
O       3.71265      9.47157      2.59034         1.054441      0.658911      0.168899
O       3.78018      9.42759     15.48020         0.740414      0.380928     -0.588775
O      15.19732      9.48514      2.61293        -0.482280     -0.081770     -0.519760
O       0.06983      9.55416     15.38443        -0.325467      0.035297      0.273916
O       3.76790      9.51082      6.75528        -0.149170      0.071170      0.457359
O       0.03623      9.47143      6.77527        -1.839245      0.081601      0.575215
O       3.78662      9.52874     11.11239        -0.009198     -0.095790     -0.474639
O      15.16167      9.57318     10.86644        -0.157906     -0.719544      0.260452
O       7.63526      1.93785      2.70584        -0.458644     -0.223692     -0.541312
O       7.62912      2.01892     15.34600        -0.734840     -0.459604     -0.337419
O       7.55097     13.22265      2.56416         0.336145      0.057084      0.208179
O       7.61990     13.22589     15.54735        -0.000369      0.187955     -0.641074
O       7.58267      1.84722      6.73430         0.272385     -0.141131      0.011570
O       7.58522     13.33771      6.73924        -0.301631     -0.046607     -0.003244
O       7.58058      1.84650     11.09177         0.039411     -0.094926      0.165907
O       7.53898     13.38415     11.20071        -0.745735      0.292132     -0.308062
O       7.61449      5.58156      2.67317        -0.269152      0.754120     -0.715244
O       7.61309      5.60592     15.26629        -0.698496      0.058274      0.331150
O       7.51883      5.70668      6.80012         0.227220      0.512929      0.163394
O       7.56754      5.64507     11.11964        -0.342628      0.230870     -0.002246
O       7.53615      9.39939      2.57717         1.154701      0.270297     -0.119124
O       7.57228      9.36007     15.37791         0.183230      0.564025      0.004543
O       7.55514      9.54678      6.91195         1.059884     -0.917461     -0.682165
O       7.58832      9.39072     11.09932        -0.195485     -0.087024     -0.193409
O      11.33170      1.85143      2.56304         1.779583     -0.057863      0.264418
O      11.43668      1.82530     15.34037        -0.429060      0.172368      0.050944
O      11.36319     13.18036      2.61588         0.023351      0.610589     -0.126917
O      11.34976     13.23434     15.48972        -0.106868     -0.030072     -0.641694
O      11.37273      1.95824      6.83459         0.338321      0.028199     -0.045850
O      11.31522     13.37958      6.96283        -0.206333     -0.788613     -0.790045
O      11.42426      2.04152     11.10661        -0.869794     -0.333942     -0.104182
O      11.32875     13.13966     11.26813        -0.047877      0.219937     -0.319240
O      11.43147      5.73357      2.73172         0.189835     -0.138985     -0.339732
O      11.51189      5.71249     15.45179        -1.231104     -0.017027     -0.070040
O      11.35849      5.66664      6.88538         0.368334      0.036555     -0.367216
O      11.39918      5.60185     11.02301        -0.191750     -0.043311      0.098728
O      11.37605      9.47055      2.57889        -0.679491      0.068499     -0.106408
O      11.41592      9.39146     15.31432        -0.159816      0.409487     -0.138809
O      11.28271      9.52553      6.81573         2.152327      0.057579     -0.014010
O      11.33906      9.64991     11.07353         0.369381     -0.456054      0.059689
O       1.84734      3.71338      2.62670        -0.112588      0.658657     -0.096752
O       1.88536      3.65756     15.41312         0.354486      1.872885      0.088067
O       1.89775      0.01999      2.78467        -0.342937     -0.460229     -0.430206
O       1.88817     15.18933     15.37471        -0.146784     -0.156217     -0.212320
O      13.19204      3.74982      2.50716         0.489314      0.492836      0.158821
O      13.30510      3.73104     15.32274         0.050434      0.076023      0.550611
O      13.15243     15.19507      2.56691         0.179353      0.746952      0.524457
O      13.32492     15.14809     15.32451        -0.241730      0.356699     -0.100569
O       1.84493      3.80899      6.92332        -0.014912     -0.467006     -0.285303
O       1.97278     15.16200      6.90218        -0.263734      0.191523     -0.194890
O      13.32228      3.79320      6.84638         0.090970     -0.623804     -0.497674
O      13.09245      0.03978      6.97904         0.558689     -0.362349     -0.898561
O       1.77464      3.75822     11.08120        -0.080356      0.019555      0.109956
O       2.00233     15.10256     10.93818        -0.110677      0.274888      0.606557
O      13.42464      3.74154     11.14457        -0.042076      0.670848     -0.150700
O      13.13672     15.16236     11.24786         0.281892     -0.355942     -0.318445
O       1.92043      7.58785      2.68507        -0.637783     -0.057503     -0.622792
O       2.02928      7.56364     15.45993        -1.140391      0.363663     -0.373212
O      13.26017      7.60573      2.65327         0.098265      0.799202     -0.030972
O      13.48400      7.60047     15.20283         0.017450      0.266834      0.470608
O       1.87392      7.58852      6.80842         0.129959      0.178982      0.364106
O      13.26403      7.59661      6.94524        -0.046103      0.204423     -0.480660
O       1.86047      7.54941     11.12041         0.323110      0.785050     -0.344455
O      13.24546      7.56958     11.09217         0.087190      0.453154     -0.470677
O       1.76763     11.51842      2.64420         0.519037     -1.691302     -0.205831
O       2.06436     11.39249     15.46005        -0.705346      0.038156     -0.213461
O      13.28078     11.36627      2.61076        -0.036686      0.244556     -0.312419
O      13.29343     11.42052     15.53656        -0.360236     -0.875722     -0.182128
O       1.79363     11.42126      6.84950        -0.089203     -0.152173     -0.027551
O      13.27368     11.41960      6.89385        -0.385589     -0.051096     -0.069733
O       1.80304     11.36740     11.02077         0.361837     -0.218561      0.092263
O      13.30400     11.40116     11.12642        -0.217396     -0.619398     -0.441851
O       5.69232      3.81450      2.64060        -0.472979     -0.976711     -0.172546
O       5.55485      3.73645     15.41639         0.399901      0.225780     -0.170326
O       5.72801      0.00875      2.61037         0.119442     -0.486449      0.435707
O       5.82199     15.10647     15.37340        -0.317933      2.044999      0.018277
O       5.64847      3.76654      6.95816         0.220767      0.595476     -0.584755
O       5.56738     15.15872      6.97885         0.342575      0.153504     -1.107798
O       5.71989      3.76965     11.15257        -0.079217     -0.137290     -0.179350
O       5.52429      0.02361     11.05037         0.223494     -0.727568     -0.263824
O       5.52734      7.56226      2.63667         0.779748      0.187888     -0.193989
O       5.65548      7.59401     15.47161        -0.121478     -1.389572     -0.582914
O       5.62952      7.61089      6.90881         0.330877     -0.647237     -0.198311
O       5.68619      7.60369     11.20983        -0.402369     -1.002367     -1.008841
O       5.63327     11.32342      2.74837         0.015191      0.625633     -0.611707
O       5.68895     11.38092     15.35588        -0.055755     -0.027597     -0.046561
O       5.66669     11.33493      6.87830        -0.007307      1.509535     -0.452197
O       5.82773     11.36807     11.11104        -0.428030     -0.268037     -0.331782
O       9.48152      3.76619      2.64236         0.678844      0.649229     -0.179401
O       9.57447      3.80822     15.35547         0.316187     -0.306730      0.133733
O       9.36621      0.03920      2.61994         0.678050     -0.695313     -0.291354
O       9.51134     15.16609     15.36619        -0.320015      0.183219     -0.370007
O       9.43409      3.82340      6.78694        -0.061571     -0.425184      0.074152
O       9.47436      0.01212      7.02542         0.076452     -0.574928     -1.336821
O       9.37822      3.74696     11.06962         0.179210      0.937278      0.163956
O       9.54765     15.16232     11.12324         0.238516      1.211497      0.260455
O       9.43972      7.58381      2.51496         0.334184      1.015145     -0.052071
O       9.47388      7.56631     15.34167         0.220275     -1.078722      0.279997
O       9.55959      7.60796      6.86856        -1.105899      0.346038     -0.288977
O       9.48942      7.55197     11.12184         0.140726      0.274398     -0.439460
O       9.42301     11.38014      2.53053         0.123174     -0.611102     -0.116350
O       9.46448     11.34412     15.28732         0.269301     -0.129188      0.180231
O       9.47846     11.43068      6.81731        -0.004915      0.122845     -0.445760
O       9.31732     11.38514     11.20923         0.304793     -0.556055     -0.225925
