  # total energy = -7879.19993544 
CRSYTAL
PRIMVEC
    15.2000000000000000    0.0000000000000000    0.0000000000000000
     0.0000000000000000   15.2000000000000000    0.0000000000000000
     0.0000000000000000    0.0000000000000000    17.000000000000000
PRESSURE
8.13455 7.76865 2.2553 0.379833 -0.157371 0.098364
PRIMCOORD
320 1
Pb       3.74847      3.78391      4.15346        -0.455519     -0.232195      0.590019
Pb       3.93310      3.88052     16.96473        -0.601145     -0.222116      0.358677
Pb       3.67706      0.08711      4.30959         0.019009     -0.087476     -0.650023
Pb       3.82642     15.17690     16.99298        -0.533080     -0.137988      0.129093
Pb       0.01497      3.94131      4.26636         0.203284     -0.330842     -0.033334
Pb      15.16158      3.65881      0.08058        -0.432839      0.783910     -0.647911
Pb       0.04607      0.12876      4.27492        -0.269153     -0.196550     -0.370841
Pb      15.10000     15.13436     16.99390         0.616772      0.611058      0.230550
Pb       4.06518      3.67686      8.47220        -1.074178      0.672826      0.467482
Pb       3.77922     15.07431      8.69531         0.482627     -0.582531     -0.141472
Pb       0.10689      3.78004      8.47846        -0.484991     -0.205907      0.145219
Pb      15.17722     15.03964      8.57169        -0.428150      0.829313     -0.250919
Pb       3.72473      3.83501     12.73496         0.262497     -0.162122     -0.006018
Pb       3.62370      0.02733     12.80082         0.245135     -0.406300      0.087765
Pb      15.16268      3.75798     12.66770         0.481510      0.132100      0.919638
Pb      15.19580      0.12420     12.81737         0.103550     -0.774685      0.114496
Pb       3.80252      7.46519      4.20810        -0.809979      0.440812     -0.037484
Pb       3.87597      7.56866      0.05751        -0.489925      0.134103      0.138316
Pb      15.17192      7.59912      4.14788         0.354922     -0.316168      0.017853
Pb      15.15045      7.55407     16.87943        -0.153325     -0.373027      0.509727
Pb       3.85429      7.65387      8.40066         0.106346     -0.171670      0.151230
Pb      15.18167      7.49400      8.37587        -0.021760      0.473276      0.800084
Pb       3.71170      7.52749     12.65499         0.008593      0.349996      0.540625
Pb      15.15903      7.57183     12.59598         0.163250     -0.049885      0.479970
Pb       3.63072     11.29993      4.25887         0.397720      0.815137     -0.283691
Pb       3.87847     11.30963      0.26319         0.132540      0.637937     -0.403001
Pb      15.16601     11.41350      4.20293         0.335046      0.403600     -0.104986
Pb       0.02817     11.40860      0.06618        -0.229686      0.219837     -0.008908
Pb       3.87274     11.35108      8.54549         0.088216      0.497182     -0.292815
Pb      15.11866     11.35067      8.47794         0.283327     -0.383289      0.036776
Pb       3.61198     11.26755     12.89837         0.181833      0.443246      0.023746
Pb      15.14875     11.28860     12.78879         0.096841      0.247657     -0.053940
Pb       7.44638      3.61990      4.16485         0.334488      0.233233      0.738645
Pb       7.54536      3.75470     16.90031         0.270263      0.192308     -0.193723
Pb       7.56535     15.10113      4.31293         0.042712      0.174795     -0.215350
Pb       7.64463     15.10050     16.99296        -0.167881      0.351343     -0.114723
Pb       7.66141      3.79378      8.46180        -0.301658     -0.149054      0.134125
Pb       7.63880     15.14817      8.38102        -0.268929      0.117051      0.493166
Pb       7.55247      3.88299     12.76748        -0.118954     -0.193813      0.212935
Pb       7.63577      0.08504     12.70266        -0.775785     -0.235120      0.846826
Pb       7.70124      7.44276      4.32658         0.235310      0.601682     -0.152332
Pb       7.47956      7.70970     16.89245         0.611518      0.033261      0.318272
Pb       7.59540      7.62564      8.45522        -0.090329     -0.120569     -0.143082
Pb       7.54909      7.65405     12.76970        -0.161827     -0.192797     -0.053314
Pb       7.52789     11.18704      4.30751         0.323043      0.764229     -0.357637
Pb       7.77302     11.46018     16.89372        -0.919048     -0.752976      0.331113
Pb       7.58384     11.45198      8.49084        -0.156969     -0.192711      0.155861
Pb       7.50897     11.29644     12.67215         0.503821      0.224863      1.042676
Pb      11.30540      3.74819      4.23517         0.700306      0.414931      0.177504
Pb      11.35031      3.67168      0.02479         0.402392      0.541805     -0.324087
Pb      11.38598     15.13644      4.27117         0.572582      0.224708     -0.167629
Pb      11.41353     15.04565     16.95750        -0.154943      1.311208      0.575014
Pb      11.43251      3.81520      8.49223        -0.000394     -0.173738      0.112654
Pb      11.39532      0.02870      8.27916        -0.227799     -0.065537      1.211325
Pb      11.32536      3.82916     12.78678         0.051582     -0.482997     -0.246711
Pb      11.46617      0.03486     12.62226        -0.283821      0.276605      0.895814
Pb      11.41472      7.63302      4.19573        -0.077443     -0.508869     -0.185805
Pb      11.24723      7.48742     16.89305         0.696017      0.102691      0.677714
Pb      11.31894      7.53066      8.42419         0.058301      0.078958      0.227671
Pb      11.33753      7.56088     12.63791         0.230032      0.268911      0.526264
Pb      11.33044     11.19461      4.29247         0.028916      0.843714     -0.749862
Pb      11.38069     11.58228     16.88132         0.022762     -0.853745      0.708454
Pb      11.50265     11.44242      8.53207        -0.875626     -0.454316      0.146526
Pb      11.39616     11.47331     12.61306        -0.498458     -0.535507      0.567795
Ti       1.84365      1.93952      2.10587         0.501715     -0.269400      0.863314
Ti       1.93077      2.01349     15.00558        -1.234777     -2.138090      0.033335
Ti       1.87498     13.36555      2.24843         0.418479     -0.119168     -0.638597
Ti       1.85713     13.33518     15.13315         0.729341      0.859968     -0.658112
Ti      13.31048      1.97938      2.27861        -0.579828     -0.626631      0.645288
Ti      13.30059      1.89403     15.03575         0.357539      0.998288     -0.133543
Ti      13.22056     13.31997      2.31539         0.414390      0.549649     -0.033869
Ti      13.30298     13.31025     14.93688         0.025911      0.171750     -0.226354
Ti       1.96579      1.82988      6.65161        -1.584491      1.466230     -1.238868
Ti       1.81987     13.34842      6.52636         0.624462     -1.677451     -1.781530
Ti      13.34901      1.95078      6.44395         0.359699     -0.247679     -0.388155
Ti      13.24857     13.25016      6.43822        -0.702913      0.521471     -0.045418
Ti       1.92501      1.84696     10.74771        -0.511804     -0.029472      0.244769
Ti       1.80872     13.23177     10.77562         0.303922      0.442910      0.236185
Ti      13.35574      1.87561     10.76819        -1.432160      0.070324     -1.613122
Ti      13.24626     13.23245     10.73427         0.806534      1.225121      0.828930
Ti       1.88594      5.69657      2.15903        -0.231614     -0.333763     -0.113590
Ti       1.90197      5.69326     15.02110        -0.821596      0.300154     -0.216114
Ti      13.25739      5.74912      2.20041         0.017295     -0.741290     -0.918030
Ti      13.30363      5.68142     14.88762        -0.264252     -0.693112      1.870261
Ti       1.93727      5.72567      6.56146        -0.262329     -1.288589     -1.070125
Ti      13.31557      5.70114      6.41723        -1.018573     -0.757843     -0.554601
Ti       1.83410      5.63634     10.67430         0.092197     -0.096047     -0.374143
Ti      13.22360      5.61457     10.72014         0.725550      0.319465     -0.408801
Ti       1.86065      9.54560      2.16959         1.436968     -0.619565     -0.311788
Ti       1.90595      9.56067     15.15346        -0.064139     -0.703945     -0.750139
Ti      13.29230      9.53306      2.18239        -0.500538     -0.495752     -0.145975
Ti      13.30974      9.50727     15.01846         0.182944      0.104469     -1.418945
Ti       1.88583      9.54893      6.48258        -0.148980     -0.018814     -0.241425
Ti      13.26628      9.43608      6.52493         0.164657      0.361261     -0.787527
Ti       1.87071      9.48605     10.65877        -0.681310     -0.293364     -1.393744
Ti      13.26256      9.46463     10.77319        -0.070265     -0.120761     -1.583069
Ti       5.65782      1.84606      2.14973        -0.855667     -0.145567     -0.352699
Ti       5.64448      1.85237     14.96545         1.076412      0.352025      0.069060
Ti       5.69311     13.28175      2.29307        -1.519835     -0.527531     -0.088306
Ti       5.63118     13.30212     14.94913         0.468509      0.016366     -0.732950
Ti       5.69705      1.77255      6.54912         0.256903      1.403126     -0.603586
Ti       5.65310     13.22829      6.37688        -0.261969      0.194634      0.581707
Ti       5.71874      1.83650     10.79208        -0.652289      0.278931     -0.027396
Ti       5.59049     13.19234     11.00931        -0.387465      0.856823     -1.117806
Ti       5.74686      5.71119      2.35662        -0.435108      0.563568     -2.248198
Ti       5.67056      5.76435     15.03982         0.797336     -0.106561     -0.872541
Ti       5.69348      5.70288      6.48398         0.387474     -0.359550      0.496535
Ti       5.64243      5.69645     10.74724         0.660361      0.257085     -0.442173
Ti       5.72923      9.49406      2.30179        -0.284254     -0.016243     -0.193098
Ti       5.60943      9.57719     15.03580         0.998797     -0.226133     -0.756324
Ti       5.69316      9.51026      6.33065         0.607911     -0.323671      0.982997
Ti       5.64771      9.48113     10.76827        -0.262848      0.152932     -0.288951
Ti       9.44541      1.86934      2.30210         0.889837     -0.808110     -1.125183
Ti       9.51437      1.90089     14.98509        -0.230935      0.157648     -0.112709
Ti       9.42226     13.31397      2.28283         0.819143     -0.487625      0.031800
Ti       9.47178     13.32499     14.90455        -0.055790      0.125075      0.629997
Ti       9.55253      1.87640      6.36958        -1.343175      0.234469      1.641571
Ti       9.45256     13.21777      6.44555         0.058687      0.326008     -0.639137
Ti       9.45809      1.88296     10.69026         1.629989      1.283929     -0.466297
Ti       9.40921     13.37518     10.79922        -0.114391     -1.757143     -0.995014
Ti       9.49277      5.62652      2.22328         0.172245      1.148269     -0.250917
Ti       9.50698      5.71970     14.94400        -0.230969     -0.930803     -0.095236
Ti       9.46389      5.61925      6.46866         0.134874      0.413034      0.560590
Ti       9.43839      5.68837     10.73611        -0.263415      0.238127     -0.625648
Ti       9.43551      9.51248      2.18592         0.735270     -0.549817     -0.906563
Ti       9.63672      9.48231     14.84690        -3.288029      0.281723      0.105396
Ti       9.49571      9.51935      6.46039        -0.523033     -0.449203      0.947815
Ti       9.46659      9.49602     10.69425         0.290683      0.400996      0.818239
O       1.90131      1.88442      0.35952        -0.049019      0.625533      0.009768
O       1.76535      1.89129     13.17291         0.698236     -0.011344      0.712472
O       1.91852     13.38181      0.42062        -0.357232     -0.489804      0.174387
O       1.88613     13.50537     13.32536        -0.286909     -0.728010      0.527901
O      13.28235      1.91723      0.49668         0.036841      0.178695      0.300062
O      13.38958      2.02517     13.24280        -0.515012     -0.628442      0.127506
O      13.08639     13.27355      0.51080         0.584417      0.215985      0.263429
O      13.36468     13.33583     13.17370        -0.421055     -0.344917      0.011804
O       1.85471      1.84498      4.80165         0.384682     -0.372030      1.054789
O       1.84645     13.23620      4.63642         0.111602      0.689656      1.806960
O      13.38417      1.98954      4.62616        -0.010040     -0.340380      1.114051
O      13.19704     13.24340      4.66668         0.391939     -0.162691      0.101535
O       1.89217      1.87655      8.98480        -0.108587     -0.169525     -0.520175
O       1.83010     13.29759      8.98553         0.022071     -0.139991     -0.439058
O      13.21718      1.97162      8.93046         0.180544     -0.409053      0.821559
O      13.13022     13.23163      8.96182         0.654074      0.324525      0.050317
O       1.96483      5.53763      0.38923        -0.134991      0.329063      0.267545
O       1.82951      5.68989     13.20852         0.500271      0.279362      0.469552
O      13.16901      5.73679      0.39630         0.197674      0.203487      1.033425
O      13.12297      5.74999     13.14734         0.777274     -0.420723     -0.685179
O       1.78415      5.69268      4.74646         0.489667     -0.060932      0.544215
O      13.21330      5.76981      4.60672         0.525565      0.076309      0.920263
O       1.80102      5.62397      8.86853         0.355938      0.438482      0.366931
O      13.18637      5.61345      8.92121         0.286294      0.196109      0.577243
O       1.88051      9.57216      0.35081        -0.200190      0.215443      0.848136
O       1.96874      9.49690     13.30945        -0.265563     -0.246576      0.068231
O      13.39786      9.47831      0.42185        -0.278392      0.223316     -0.295830
O      13.36208      9.56503     13.17047         0.001384     -0.140977      0.883680
O       2.00210      9.64762      4.69256        -0.898219     -0.545896      0.259374
O      13.11388      9.46882      4.66339         0.751657      0.002948      1.047490
O       1.84978      9.53581      8.81840         0.264605     -0.128508      0.729754
O      13.30234      9.60084      8.92822        -0.054969     -0.670759      0.800669
O       5.67011      1.86317      0.33247         0.117737      0.338237      1.250001
O       5.66012      1.87641     13.19773         0.098409      0.234303     -0.316751
O       5.63102     13.20797      0.52697         0.305446      0.415918     -0.422567
O       5.70800     13.32376     13.12294        -0.376024      0.066412      1.335994
O       5.59607      1.90098      4.74525         0.225530     -0.313744      0.198890
O       5.67857     13.16879      4.61010         0.181882      0.801693      0.008755
O       5.70441      1.89499      8.97189        -0.106590     -0.164622      0.619355
O       5.56864     13.23829      9.16080         0.124412     -0.371425      0.368268
O       5.82091      5.78377      0.44327        -0.707327     -0.294688      1.718508
O       5.70707      5.77558     13.23991        -0.112268      0.159154     -0.117638
O       5.63672      5.76668      4.71831         0.335338     -0.177513     -1.289749
O       5.74953      5.83254      8.95450        -0.332488     -0.285767      0.278442
O       5.67251      9.50424      0.50094        -0.014906     -0.071474     -0.375263
O       5.52154      9.43399     13.22106         0.005955     -0.002771      0.449778
O       5.70702      9.52048      4.56583        -0.068320     -0.279356      0.126093
O       5.67401      9.68980      8.97546        -0.307883     -0.493451     -0.029500
O       9.39137      1.86308      0.49950         0.317033      0.017703      0.308973
O       9.52144      1.98892     13.21266         0.155440     -0.245833     -0.392607
O       9.51292     13.46452      0.44720        -0.027489     -0.687246      0.829129
O       9.50627     13.34744     13.17296        -0.125760     -0.040561     -0.742961
O       9.38213      1.90384      4.63507        -0.118441      0.158678     -0.617660
O       9.32767     13.11662      4.64882         0.131910      0.605174      0.475369
O       9.56077      1.85499      8.90416        -0.455484     -0.091590      0.548757
O       9.51112     13.25564      8.99088        -0.589529      0.400495      0.800187
O       9.46401      5.78766      0.43296         0.215612     -0.324000      0.642290
O       9.52056      5.68884     13.13154        -0.137163     -0.104925      0.246975
O       9.38459      5.53873      4.71672         0.099207      0.184882     -0.415717
O       9.39520      5.63692      8.91732         0.183146      0.801183      0.639014
O       9.44599      9.50582      0.39864        -0.015528     -0.284561      0.141284
O       9.53371      9.44299     13.06018        -0.226990      0.195051      0.588721
O       9.41754      9.61573      4.68266         0.533968     -0.346257      0.025963
O       9.52647      9.47131      8.94174        -0.340490      0.065632     -0.633405
O       3.66072      2.10394      2.54614         1.998855     -0.539517     -0.051766
O       3.81130      1.82075     15.30791        -0.623705      0.424580     -0.083255
O       3.74745     13.16352      2.46224         0.412509     -0.283034      0.738735
O       3.82211     13.40927     15.30121        -0.561104     -0.070258      0.140897
O       0.00823      1.79223      2.62352        -0.026268      0.529863     -0.356518
O      15.18894      1.96857     15.46073         0.124390     -0.156248     -0.260717
O      15.19783     13.43729      2.63174        -1.010128     -0.233631     -0.109041
O      15.12790     13.31583     15.45867         0.455243     -0.512563     -0.092075
O       3.77022      1.90585      6.94525         0.979621     -0.486681      0.006602
O       3.84940     13.34022      6.92825        -1.266441     -0.267034     -0.367941
O      15.18495      1.91821      6.94703        -0.404433     -0.629288     -0.255638
O      15.06427     13.32322      6.86449         1.185757      0.057169      0.046641
O       3.75600      1.91733     11.12905         1.083845     -0.299758     -0.062948
O       3.66416     13.35906     11.15899         0.880908     -0.413098      0.246576
O      15.18608      1.82024     11.16464         0.537295      0.246982     -0.534257
O      15.18062     13.29579     11.17117        -1.251340     -0.143952     -0.495159
O       3.76600      5.63013      2.60714         0.684613     -0.046668      0.025995
O       3.81910      5.70048     15.30278        -1.161330      0.290790      0.359735
O      15.19701      5.78753      2.55670        -0.189251      0.054794     -0.024062
O      15.16607      5.55838     15.37234         0.481138      0.765706     -0.240078
O       3.84369      5.68203      6.86336        -1.009642      0.508899      0.178312
O      15.15519      5.65842      6.85718         0.264021     -0.164746     -0.151039
O       3.77480      5.77284     11.03138        -0.466459     -0.117942      0.139235
O      15.18754      5.60074     11.08263        -0.478138      0.412531     -0.123873
O       3.76713      9.66438      2.59116        -0.222218     -0.225552     -0.376439
O       3.75860      9.59952     15.50849         0.448747     -0.437146     -0.138686
O       0.11031      9.39554      2.57699        -2.681139      0.101834      0.323288
O      15.19524      9.69989     15.38966        -0.470869     -0.549508     -0.197009
O       3.85349      9.52643      6.70916        -1.134678      0.019375      0.560738
O      15.18699      9.41063      6.87550        -0.335271      0.582754     -0.554257
O       3.68837      9.39811     10.93131         0.555204     -0.013297      0.510392
O      15.16758      9.53955     11.06228         0.245864     -0.081908      0.365859
O       7.54611      1.72575      2.49048        -0.801759      0.182025      0.676652
O       7.59442      2.09303     15.19072        -0.209587     -0.559078      0.451294
O       7.53848     13.54677      2.49236         0.771667      0.035779      0.278902
O       7.62531     13.30143     15.37914        -0.280307      0.076870     -0.283415
O       7.54771      1.92634      6.84092         0.741323     -0.196232     -0.087236
O       7.52244     13.30022      6.88402         0.248765     -0.038817     -0.094921
O       7.61272      2.00961     11.12362        -0.337869     -0.051738     -0.075196
O       7.48531     13.15629     11.21211         1.408799      0.651392     -0.552246
O       7.62456      5.77942      2.70068        -0.725772     -0.385215     -0.299274
O       7.58569      5.68040     15.36742         0.484300      0.283206     -0.417766
O       7.54705      5.73035      6.87822         0.749004     -0.151173     -0.101903
O       7.53215      5.77079     11.19600         1.056365     -0.416106     -0.297617
O       7.59885      9.31692      2.60051        -0.587295      0.295877      0.189032
O       7.55412      9.53435     15.29681         0.159001     -0.360642     -0.138588
O       7.60680      9.58667      6.80528        -0.031394     -0.289685     -0.034717
O       7.50554      9.63847     10.99380         1.118039     -0.734126      0.259770
O      11.36425      1.97333      2.76065         0.466209     -0.122687     -0.697821
O      11.43881      1.91125     15.50560        -0.888743     -0.312074     -0.689643
O      11.35167     13.20192      2.71226         0.112206      0.143725     -0.249891
O      11.40679     13.42348     15.34861        -0.652762     -0.558311     -0.477771
O      11.37385      1.85064      6.67522        -0.000405      0.245286      0.031071
O      11.33958     13.19191      6.83726         0.050122      0.550115     -0.291797
O      11.41386      1.82316     11.08908        -0.703108      0.437788      0.165264
O      11.34457     13.39655     11.11729        -0.002918     -0.535563     -0.038224
O      11.33443      5.64812      2.68632        -0.159959     -0.069388     -0.443732
O      11.40502      5.70147     15.33446        -0.220777      0.016766     -0.131828
O      11.36103      5.76748      6.84284        -0.025334     -0.401743     -0.251692
O      11.41176      5.61478     11.07842        -0.420929      0.572853     -0.159831
O      11.36896      9.58392      2.44217         0.768396     -0.173699      0.613512
O      11.35779      9.52301     15.14961         2.157961     -0.163187      0.704374
O      11.40144      9.50823      6.89285        -0.434833     -0.354316     -0.393425
O      11.37251      9.42355     11.07253         0.183669      0.788083     -0.080031
O       1.83057      3.80216      2.73753        -0.628292      0.269987     -0.709265
O       1.93861      3.78801     15.34339         0.357071      0.879080      0.041972
O       2.06653      0.02764      2.53655        -0.370498      0.524172      0.467288
O       1.79419      0.09368     15.50734         0.289236     -0.885078     -0.609457
O      13.39930      3.89929      2.55424        -0.278443     -1.241091      0.143789
O      13.30195      3.79059     15.44966        -0.520430      0.366428     -0.307830
O      13.28029      0.07547      2.64902        -0.717605     -1.088709      0.037137
O      13.33179      0.03563     15.36705        -0.107762     -0.816142     -0.118563
O       1.86831      3.73966      6.93890         0.308166      0.475754     -0.321627
O       1.81002     15.12070      7.03187         0.276254      0.907873     -0.253986
O      13.21143      3.80936      6.70714        -0.043990     -0.026947      0.332652
O      13.15198     15.17165      6.85898         0.899024      0.019428     -0.633019
O       1.94265      3.74097     11.15367        -0.423219      0.843379     -0.368359
O       1.86744     15.14992     11.09260        -0.117733      0.716347     -0.007541
O      13.42255      3.74430     11.15747        -1.138372      0.597065     -0.516044
O      13.23158     15.19739     11.20871         0.912425     -0.566070     -0.817190
O       1.94842      7.56873      2.45191         0.377528      0.663313      0.390334
O       1.87357      7.57880     15.52416         0.050838      0.094010     -0.773965
O      13.22929      7.57250      2.57386        -0.032727      1.549565      0.245729
O      13.33954      7.60725     15.28226         0.099927      0.366576     -0.074111
O       1.80239      7.58639      6.62992         0.666098      0.629931      0.984810
O      13.31328      7.52655      6.88356        -0.345140      1.272492     -0.072461
O       1.73978      7.52349     10.97421         0.376476      0.878667      0.217388
O      13.30164      7.61816     11.10322         0.113811     -1.205821     -0.343579
O       1.69690     11.43863      2.57095         0.316565     -0.573647     -0.191823
O       1.99373     11.43721     15.33473        -0.538260      0.670646      0.160626
O      13.38043     11.38400      2.50743         0.321260      0.110569      0.366930
O      13.17347     11.45259     15.28085         0.194500     -0.459772      0.270136
O       1.76164     11.48543      6.76231         0.348543     -1.002573      0.417873
O      13.27223     11.34391      6.95654         0.239902      0.219170     -0.913377
O       1.84137     11.35359     11.12568         0.347182     -0.286465      0.123309
O      13.24353     11.36464     11.08386        -0.102893      1.017211      0.099496
O       5.69125      3.80921      2.61209         0.372057     -0.420128     -0.374952
O       5.59371      3.89258     15.36337         0.529297     -1.332552     -0.139773
O       5.39875      0.05870      2.66371         0.580258     -0.274132     -0.347526
O       5.70714     15.18557     15.40667         0.627644      0.247481     -0.363541
O       5.72802      3.83314      6.87921        -0.115689     -0.605978     -0.111971
O       5.66643     15.19013      6.95811         0.117305     -0.949021     -0.494618
O       5.64548      3.83331     11.18768         0.014240     -0.263482     -0.374690
O       5.70668      0.00717     11.21269         0.072704      0.288370     -0.541863
O       5.48359      7.61380      2.62188         0.636815     -0.955431     -0.123640
O       5.55613      7.67058     15.39442         0.545908     -0.329614      0.051010
O       5.73261      7.64595      6.81363        -0.224029      0.200803      0.177496
O       5.77230      7.64544     11.09192        -0.566748     -0.480528      0.098846
O       5.81562     11.34561      2.58407         0.122042      0.950912     -0.037899
O       5.69663     11.44371     15.31148        -0.244223      0.078626      0.172872
O       5.75494     11.38005      6.76582        -0.462726      0.316821      0.166059
O       5.55587     11.30638     11.38374        -0.581917      0.514005     -0.795743
O       9.43005      3.70699      2.62889        -0.461153      1.477782     -0.276384
O       9.56885      3.80600     15.30066        -0.043587      0.296460      0.405353
O       9.65616     15.16943      2.76095        -0.915670     -0.051391     -0.375224
O       9.44424      0.01603     15.35396        -0.017323      0.034663     -0.279664
O       9.47883      3.77551      7.01338         0.104603     -0.437168     -1.203620
O       9.34577     15.16830      6.67748         0.612711      0.281995      0.133506
O       9.64334      3.86174     10.96593        -0.895771     -1.224670      0.459700
O       9.36314      0.04758     11.09428         0.085250     -0.682451     -0.019901
O       9.51884      7.64439      2.66383         0.284672     -1.336708      0.044752
O       9.55546      7.56713     15.20226        -0.449359      0.956361      0.196436
O       9.42609      7.56795      6.73810         0.148398      0.706057      0.174745
O       9.57029      7.60043     11.08102        -0.843315     -0.233945     -0.341012
O       9.41473     11.38291      2.53439        -0.570921      0.804694     -0.023889
O       9.49712     11.38470     15.38416         0.502554      0.723574     -0.890191
O       9.49644     11.43432      6.83910        -0.262410     -1.352024      0.229987
O       9.43355     11.39115     11.17677         0.720816      0.466201     -0.465606
