  # total energy = -7877.31774188 
CRSYTAL
PRIMVEC
    15.2000000000000000    0.0000000000000000    0.0000000000000000
     0.0000000000000000   15.2000000000000000    0.0000000000000000
     0.0000000000000000    0.0000000000000000    17.000000000000000
PRESSURE
7.86527 7.43408 0.339917 -0.230158 -0.098276 -0.09766
PRIMCOORD
320 1
Pb       3.62290      3.86254      4.31345         0.371798      0.500732     -0.529833
Pb       4.00999      3.92580      0.03644        -0.504383      0.003340      0.744710
Pb       3.58919      0.24600      4.39370         0.137387     -0.635011     -0.499119
Pb       3.92198     15.16000     16.98301        -0.223848      0.234694     -0.259600
Pb      15.18966      3.91396      4.18235        -0.069336      0.184849     -0.039006
Pb       0.17475      3.78526     16.92228        -0.794674      0.103102      0.510182
Pb      15.14215      0.32885      4.51824         0.064078     -1.145673     -0.869286
Pb       0.07507     15.07288     16.90847         0.023997      0.092897     -0.523308
Pb       3.98408      3.85426      8.42049        -0.561355     -0.302200      0.176343
Pb       3.84267     14.93547      8.76537        -0.295598      0.673377     -0.422517
Pb       0.11557      3.68133      8.70763        -0.368191      0.240369     -1.056052
Pb      14.89288     15.07198      8.59727         0.777140      0.118118      0.005549
Pb       3.83889      3.75975     12.57956         0.037691     -0.099851      0.601078
Pb       3.83413     15.18791     12.79611        -0.161533      0.170668      0.438459
Pb      15.16974      3.78192     12.70201        -0.080043     -0.391991      0.223610
Pb       0.09070     15.17692     12.88068         0.127674      0.067005      0.013129
Pb       3.65821      7.73928      4.35877        -0.267056     -0.223862     -0.250800
Pb       3.86790      7.65113      0.01062         0.130164     -0.207190     -0.075378
Pb      15.04848      7.89896      4.30640         0.284384     -0.563424     -0.360840
Pb      15.19632      7.56125     16.81400         0.218135     -0.047076      0.264469
Pb       3.81451      7.59211      8.33074        -0.028880      0.080580      0.734152
Pb      15.04105      7.47445      8.53264        -0.027788      0.175307     -0.208208
Pb       3.75710      7.41425     12.56017         0.112328      0.480757      0.472963
Pb      15.15171      7.33892     12.70770         0.083121      0.299809     -0.314801
Pb       3.47474     11.51679      4.37743         0.044349     -0.391480     -0.564333
Pb       4.09057     11.44391      0.34902        -0.565773     -0.324994     -0.718821
Pb      15.03410     11.56134      4.22642         1.062934     -0.578188     -0.215882
Pb       0.15228     11.40787     16.91877        -0.220688      0.133695     -0.365261
Pb       3.69440     11.40848      8.55587         0.087351     -0.580248     -0.078894
Pb      15.00642     11.41216      8.58269         0.345803     -0.279744      0.067530
Pb       3.69559     11.28822     12.70307         0.641081     -0.294550      0.553406
Pb      15.16792     11.02803     12.93399         0.320002      0.925933     -0.420670
Pb       7.55838      3.78924      4.21356         0.037155      0.103651     -0.319735
Pb       7.55543      3.77973      0.08683         0.196647      0.453335     -0.035267
Pb       7.57939     15.12844      4.23468         0.211585      0.562793      0.312931
Pb       7.65307     15.09723     16.99984         0.124242     -0.186923     -0.258520
Pb       7.70967      3.73868      8.32654        -0.264771     -0.041770      0.244214
Pb       7.62550     15.11570      8.41500         0.203167      0.322283     -0.274981
Pb       7.59493      3.86026     12.76629        -0.193806     -0.946208      0.341478
Pb       7.56271     15.12120     12.82246         0.218644      0.737817      0.157653
Pb       7.76726      7.62027      4.16304        -0.573729     -0.603989      0.899630
Pb       7.54204      7.74307      0.11035        -0.158992     -0.556506     -0.278563
Pb       7.51299      7.64661      8.30209         0.544116     -0.244208      0.025305
Pb       7.41273      7.52334     12.61926         0.468504      0.134196      0.918539
Pb       7.47520     11.36613      4.26590         0.545039      0.244682      0.084709
Pb       7.59695     11.46044      0.02326         0.431863     -0.035840      0.130115
Pb       7.52092     11.58083      8.55971         0.743002     -0.698014     -0.670969
Pb       7.47313     11.28951     12.69233         0.394518     -0.148773      0.557563
Pb      11.42886      3.82959      4.08322        -0.155137      0.057256     -0.049405
Pb      11.37962      3.61301     16.99379         0.205310      0.585705      0.015307
Pb      11.51841     15.17896      4.12299        -0.478080      0.098273      0.031496
Pb      11.50454     15.12517     16.92248        -0.261036     -0.154305      0.379433
Pb      11.44313      3.80714      8.45071        -0.281446      0.150250      0.220408
Pb      11.26913      0.02224      8.39534        -0.159911     -0.267049      0.194162
Pb      11.33050      3.71284     12.81393         0.434557      0.040496      0.262361
Pb      11.42074     15.12165     12.71911        -0.416710      0.243259      0.125696
Pb      11.47872      7.73926      4.07314         0.099240     -0.720293      0.179410
Pb      11.37082      7.53191     16.90081        -0.209364      0.487601      0.205490
Pb      11.25618      7.49008      8.63046         0.161242      0.071437     -0.359519
Pb      11.32645      7.49425     12.90156        -0.210538     -0.075375     -0.673622
Pb      11.39278     11.29700      4.12500         0.112935      0.270708     -0.011113
Pb      11.44878     11.50356     16.79814        -0.265827     -0.852582      0.733557
Pb      11.25592     11.48800      8.51549        -0.007218     -0.319009      0.148642
Pb      11.31395     11.29151     12.60195        -0.243351     -0.114651      0.321439
Ti       1.88635      1.96140      2.20565        -0.568833     -0.072278     -1.238440
Ti       1.94964      1.97715     15.05328        -0.128142     -1.915580     -1.773634
Ti       1.96044     13.37955      2.09338        -0.888203     -0.465964     -0.231774
Ti       2.02872     13.25058     14.95439        -1.413270     -0.358768     -0.171877
Ti      13.32439      1.91947      2.19691        -0.649927     -0.112972     -1.461212
Ti      13.29791      1.84531     14.96399         0.983248      0.605849     -0.583098
Ti      13.42366     13.31969      2.16975        -0.438362     -0.010095     -1.383173
Ti      13.26672     13.28691     14.82262         2.090814     -0.209605      0.508073
Ti       1.88475      1.83861      6.69528        -0.509892      0.682535      0.420871
Ti       1.85645     13.30486      6.60987        -0.702282     -0.145969     -0.596788
Ti      13.26630      1.89189      6.56260        -0.497931      0.371285     -1.020102
Ti      13.31405     13.29570      6.37061        -0.524255     -0.449734      0.259397
Ti       1.90807      1.84677     10.74940        -0.009852     -0.764521     -0.600412
Ti       1.94650     13.20623     10.85210        -1.075630      0.780963     -0.369239
Ti      13.27002      1.80993     10.81428        -0.054650      0.334442     -0.043744
Ti      13.37396     13.22842     10.84439        -0.034842     -0.499760      0.346501
Ti       1.83298      5.82444      2.21032         0.675666     -0.225608      0.084066
Ti       1.98319      5.63274     14.89090        -0.520767      0.378977     -0.092822
Ti      13.30016      5.71782      2.05030        -0.682640      0.162789      0.437119
Ti      13.24004      5.57146     15.05167         0.569002      0.288184     -1.029793
Ti       1.86712      5.67859      6.50496        -0.864394     -0.426374      0.192406
Ti      13.26209      5.59867      6.28063         0.533873      1.215367     -0.010765
Ti       1.92326      5.59591     10.55902         0.559635      0.665603      0.605953
Ti      13.24000      5.60981     10.74962        -0.715472     -0.008110      0.209675
Ti       1.86991      9.54570      2.19519        -0.881899      0.178691     -0.137137
Ti       1.96647      9.41589     14.96575        -0.075256      0.301217     -0.610089
Ti      13.32522      9.59650      2.03696        -0.374606     -1.149495      0.200501
Ti      13.24303      9.42588     14.96466        -0.522756      0.504187      2.166326
Ti       1.74915      9.46850      6.63278         1.232607      0.453467     -0.641342
Ti      13.21307      9.47551      6.60379        -0.505197     -0.524604     -1.344853
Ti       1.91124      9.39499     10.74971        -0.489831     -0.571545     -0.747513
Ti      13.26110      9.40842     10.85940        -0.097789     -0.790949     -1.479843
Ti       5.65836      1.91738      2.29809        -0.428862      0.442435     -0.681154
Ti       5.71262      1.90492     15.02484         0.125220     -0.664654     -1.662058
Ti       5.68622     13.35801      2.40830        -0.157077     -0.365515     -0.714822
Ti       5.70428     13.27009     14.94978         0.407128     -0.588955     -0.054274
Ti       5.64575      1.80725      6.40612         1.409568      0.541521     -0.238495
Ti       5.62474     13.27773      6.41725         1.506467     -0.351272      0.284479
Ti       5.71682      1.83633     10.64428         0.306061      0.957857     -0.133692
Ti       5.76615     13.28865     10.79040        -0.407558     -0.390853      0.168088
Ti       5.63700      5.80466      2.39104        -0.314789     -0.961583     -1.346017
Ti       5.69315      5.70397     14.99143         0.909152      1.181139     -1.028535
Ti       5.71876      5.68465      6.39010         0.125635      0.005666     -0.792584
Ti       5.75858      5.63058     10.57248        -0.972280      0.025074     -0.722765
Ti       5.70095      9.51411      2.43178        -0.910804     -0.300023     -0.948059
Ti       5.66076      9.52940     14.96548         0.302863     -0.508447     -0.649847
Ti       5.64575      9.56766      6.46400         0.157922     -0.304806     -0.458747
Ti       5.73292      9.48084     10.62663        -1.482145     -0.265049     -1.207743
Ti       9.48461      1.86046      2.19369        -0.066565      0.088588      0.973407
Ti       9.49794      1.84118     15.08849        -0.363773      0.025329     -1.799131
Ti       9.54875     13.32119      2.30244         0.024880     -0.836857     -1.241571
Ti       9.53589     13.24687     14.90123        -1.091427     -0.264995     -0.758574
Ti       9.51530      1.86600      6.30004        -1.011223     -0.800308     -1.146264
Ti       9.56309     13.25047      6.32380        -0.978876     -0.205060      0.953952
Ti       9.45299      1.81998     10.79114        -0.113035     -0.328866     -0.446920
Ti       9.47220     13.23195     10.82603         0.649212     -0.317022     -0.856745
Ti       9.47176      5.71479      2.13867         0.276784     -0.358391     -0.335693
Ti       9.38901      5.72219     15.07118        -0.165933     -0.487248     -0.829387
Ti       9.59614      5.65045      6.32744        -0.720985      0.448338      0.147076
Ti       9.46155      5.56055     10.87633         0.659572      0.899652     -1.772434
Ti       9.45841      9.51561      2.20598         0.501137      0.902932     -1.409723
Ti       9.33646      9.48680     14.92830         1.679292      0.406372      0.619289
Ti       9.52630      9.45682      6.39656        -0.754602      0.357235      0.622251
Ti       9.41897      9.33979     10.68593         1.092166      0.797940     -0.408376
O       1.79680      1.91004      0.40198         0.538163      0.251132      0.481826
O       1.85183      1.98258     13.20118         0.141139     -0.024114      0.437521
O       2.03993     13.19519      0.23837        -0.226270      0.427319      1.152845
O       2.06966     13.09256     13.13887        -0.414968      0.630647     -0.344610
O      13.28406      2.06063      0.35397         0.006468     -0.819718      1.035769
O      13.34587      1.88193     13.12699         0.032361     -0.241346      0.489370
O      13.48396     13.24904      0.32433        -0.716512      0.314894      0.820905
O      13.32383     13.44174     13.05773         0.010840     -0.633453      0.013787
O       1.65878      1.83164      4.86403         0.568909      0.123295     -0.636898
O       1.80094     13.39540      4.80579         0.279969     -0.487332      0.164909
O      13.29753      1.84732      4.72191         0.163243      0.031710      0.180852
O      13.41553     13.22434      4.58997        -0.561875      0.513794     -0.120842
O       2.03438      1.89052      8.92768        -0.484727     -0.436775      0.016704
O       2.01673     13.32632      9.00745         0.063854     -0.178491      0.264124
O      13.18040      1.84595      8.99526         0.075396     -0.041129     -0.388755
O      13.27327     13.09515      9.03306         0.044946      0.768873      0.180385
O       1.98931      5.78802      0.42281        -0.178484     -0.124653      0.518375
O       2.08970      5.57911     13.08350        -0.933319      0.122489      0.624817
O      13.30536      5.63052      0.24853        -0.113034      0.059378      0.349916
O      13.28552      5.56583     13.19418        -0.112875      0.393507      0.238301
O       1.81226      5.67179      4.71154        -0.128706     -0.241984      0.298243
O      13.19669      5.57050      4.44904         0.264220      0.322673      1.132046
O       2.01725      5.62767      8.78514        -0.645160     -0.193585      0.394875
O      13.22084      5.58495      8.95852        -0.332071     -0.089276      0.446315
O       1.80557      9.53868      0.40829         0.465858     -0.374751      0.127990
O       1.95488      9.37322     13.09162        -0.326642      0.042848      0.927824
O      13.23022      9.57747      0.27944         0.269358     -0.120991     -0.120748
O      13.25694      9.42131     13.23657         0.188348     -0.294478     -1.788015
O       1.78457      9.48528      4.77543        -0.058592      0.357513      0.878309
O      13.17384      9.44122      4.63050         0.222061      0.406516      1.864040
O       1.76502      9.35143      8.95379         0.440388      0.371826      0.096162
O      13.30073      9.26353      9.03352         0.119195      0.672522     -0.498709
O       5.55128      1.98482      0.44695         0.158378     -0.515231      0.230920
O       5.77027      1.83248     13.15473        -0.027587      0.161225      1.600933
O       5.55504     13.28159      0.53064         0.342509     -0.021074      0.146326
O       5.75901     13.29463     13.18222         0.071120     -0.251980     -0.977301
O       5.71655      1.88541      4.55647        -0.267762     -0.101740      0.913167
O       5.71392     13.31126      4.63429        -0.607068     -0.245751     -0.156907
O       5.73502      1.84258      8.83754        -0.305981     -0.004197      0.316523
O       5.76075     13.24867      8.97931        -0.338188      0.145775     -0.117055
O       5.58602      5.86877      0.41960        -0.299487     -0.451996      1.309888
O       5.82907      5.68743     13.09391        -0.192549      0.055943      1.368066
O       5.60982      5.52882      4.54170         0.401261      0.195292      1.108756
O       5.57465      5.66707      8.74095         0.776544     -0.051147      0.923313
O       5.74268      9.45615      0.56263        -0.481303      0.356282      0.646764
O       5.79395      9.41434     13.16741        -0.087602      0.203842      0.057180
O       5.49779      9.63109      4.63678         0.376401     -0.205222      0.602487
O       5.66793      9.50991      8.79293         0.323697     -0.288970      1.002862
O       9.62868      1.72625      0.40181        -0.468863     -0.078803     -0.265908
O       9.43881      1.78474     13.26003         0.004084      0.203467      0.439676
O       9.53690     13.37776      0.42904        -0.134647     -0.066739      0.828380
O       9.46576     13.14195     13.07458         0.063763      0.258706      0.733443
O       9.46114      1.80324      4.48502        -0.065020      0.639694      1.091085
O       9.54998     13.13002      4.56022        -0.037949      0.375667      0.395418
O       9.42984      1.86283      8.98593         0.271370     -0.248754      0.054991
O       9.41776     13.24706      8.98718         0.301656      0.443701      0.215115
O       9.29034      5.75726      0.37488         0.881670     -0.075249     -0.668723
O       9.35653      5.70880     13.13799        -0.027740     -0.303399      1.552158
O       9.59133      5.59105      4.55097        -0.310282     -0.016039      0.237900
O       9.47320      5.73659      8.99456         0.271467     -0.462153      0.737448
O       9.32722      9.60225      0.39154         0.336844     -0.319948      1.341541
O       9.46313      9.53281     13.14567        -0.377472     -0.066230     -0.022940
O       9.70013      9.49492      4.60210        -0.609381      0.077464      0.241323
O       9.43581      9.23056      8.86815         0.118675      0.107796      0.674524
O       3.70326      1.91194      2.71942        -0.071563      0.058728      0.036086
O       3.83500      1.75235     15.26630         0.522783      0.387307      0.259388
O       3.75547     13.14108      2.61278        -0.310642      0.396152      0.086141
O       3.83314     13.38121     15.20820         0.423723     -0.233341      0.529208
O      15.11148      1.93262      2.60705         1.170970     -0.043421      0.176940
O       0.02608      1.98392     15.30675        -0.364968      0.172925      0.067575
O       0.02427     13.31382      2.46396         0.690700      0.114784      0.200015
O       0.02922     13.20620     15.19574        -0.031620      0.216779      0.057200
O       3.77052      1.86619      6.55271         0.212947     -0.288755      0.380250
O       3.77672     13.24250      6.85188         0.200310     -0.026959      0.065715
O      15.07890      1.84327      7.01707         0.762869      0.195135     -0.021577
O      15.08487     13.24576      6.86261         1.302580      0.189544      0.609685
O       3.78044      1.68077     11.13903         0.598807      0.329459     -0.424887
O       3.93542     13.43689     11.14696        -1.371465     -0.252309     -0.469582
O      15.19013      2.05797     11.03231         0.291009     -0.270345     -0.228900
O       0.05570     13.03610     11.03569         0.399490      0.286642      0.107412
O       3.69459      5.77083      2.70295         0.162787      0.036684     -0.294772
O       3.85400      5.79892     15.17335        -0.189930     -0.210399      0.466128
O      15.12603      5.59413      2.39377         0.292401      0.080113      0.273114
O       0.00977      5.62002     15.19162         0.439848     -0.204414      0.135445
O       3.76408      5.72421      6.77514         0.277511     -0.464210     -0.560622
O      15.05347      5.50088      6.83829         0.958274      0.165011     -0.109279
O       3.83347      5.68763     11.03025        -0.025640     -0.089767     -0.611901
O      15.15609      5.57640     10.95079         0.440476     -0.335813      0.160781
O       3.65199      9.53244      2.57380         1.327968     -0.059568      0.219545
O       3.80400      9.42062     15.19938        -0.093967     -0.190986      0.506046
O      15.15073      9.47380      2.51907        -0.495444      0.146751      0.123976
O      15.19478      9.53783     15.36573        -0.524789     -0.671493     -0.822380
O       3.76474      9.41791      6.81363        -0.499675      0.521197      0.036764
O      15.15174      9.44343      6.90696        -1.266985      0.180868     -0.064215
O       3.81986      9.25354     10.99954        -0.072268      0.132898     -0.088182
O       0.02261      9.31582     11.15016        -0.044141      0.350054      0.438893
O       7.51196      1.78327      2.51144         0.238237      0.241029     -0.169835
O       7.62644      1.83043     15.49396        -0.968662      0.233976     -0.032691
O       7.55917     13.27392      2.56713        -0.321568      0.327789      0.169483
O       7.62590     13.19609     15.31780         0.133937      0.024523      0.164318
O       7.60687      1.81469      6.62759        -0.710755      0.382156      0.465353
O       7.61254     13.20175      6.69932        -0.296032      0.096108      0.226106
O       7.57227      1.97403     11.04373        -0.050573      0.058582      0.132071
O       7.59849     12.99523     11.10128        -0.381882      0.537910     -0.134768
O       7.60635      5.65193      2.50416        -1.539362      0.401910      0.803819
O       7.51500      5.64363     15.54891         0.409497     -0.096859     -1.001229
O       7.58512      5.67138      6.60468         0.719271     -0.249387      0.240723
O       7.58606      5.36014     10.98125        -0.218045      0.769235     -0.087008
O       7.55872      9.42015      2.69055         0.115472      0.143312      0.164165
O       7.56958      9.67183     15.44439        -0.552885     -0.064415     -0.515276
O       7.60146      9.45212      6.64641         0.219885     -0.017254     -0.052376
O       7.58030      9.64282     10.92999        -0.201315     -0.468851      0.349253
O      11.31922      1.78115      2.52923         0.993178      0.207016      0.056223
O      11.42475      1.68707     15.26338        -0.307516      0.567044      0.303655
O      11.42514     13.31905      2.50010        -0.011702     -0.511831      0.135357
O      11.42519     13.30695     15.23452        -0.027396      0.881271      0.059788
O      11.33665      1.68095      6.66412         0.125740      0.293917      0.767809
O      11.46873     13.32705      6.81261        -1.547161     -0.174307     -0.040853
O      11.38969      1.71134     11.08600        -0.109842     -0.473446      0.283806
O      11.40470     13.32256     11.14098         0.382795     -0.103032     -0.311858
O      11.32218      5.64827      2.39377         0.742145      0.091984     -0.033928
O      11.37610      5.69106     15.33128        -1.675917      0.515565     -0.078354
O      11.42502      5.68239      6.79402        -1.022404     -0.083411      0.156889
O      11.28843      5.71820     11.18701         1.214339     -0.165849     -0.055318
O      11.37546      9.53018      2.51207         0.100470      0.136073     -0.433444
O      11.25177      9.36778     15.39310         1.357057      0.084709     -0.497095
O      11.34313      9.53541      6.94329         0.926975     -0.493226     -0.181014
O      11.37047      9.36375     11.08372        -0.265183      0.019769      0.179441
O       1.90103      3.84545      2.60226        -0.411239     -0.237374     -0.010370
O       1.99215      3.77966     15.44024         0.515306      1.250495     -0.285649
O       1.84194      0.04812      2.36328         0.416610     -0.384054      0.708860
O       1.91323     15.19137     15.16909        -0.526894     -0.271443      0.430971
O      13.16475      3.77872      2.53234         0.175316     -0.189345     -0.304601
O      13.06325      3.74325     15.28059         0.590942     -0.484164     -0.039737
O      13.24397     15.15732      2.47223         0.202708      1.166946      0.123873
O      13.46900      0.00025     15.26386        -0.422009     -0.500986      0.245765
O       1.85418      3.73540      6.90817         0.109148      0.119117     -0.166468
O       1.79891     15.13419      6.86992         0.188458      0.782660      0.577552
O      13.05725      3.76685      6.71003         0.235407     -0.909075      0.287679
O      13.25999     15.16646      6.83512         0.329722     -0.207221      0.209401
O       2.03646      3.71506     10.97687        -0.228343      0.781613      0.011728
O       1.76003     15.12249     11.10822         0.224626      0.380963      0.234406
O      13.12435      3.71530     11.15833         0.099458      0.418191     -0.328940
O      13.57013     15.10927     11.12467        -0.503707      0.522547     -0.614140
O       1.73833      7.64930      2.78918         0.390031     -0.131609     -0.889433
O       1.93991      7.46189     15.39065        -0.638907      1.211127     -0.556329
O      13.19716      7.59600      2.42875         0.369541      0.149652     -0.272103
O      13.28987      7.54080     15.28346         0.019495      0.355866      0.097554
O       1.80074      7.55244      6.86398        -0.126882     -0.026098     -0.146549
O      13.31943      7.52132      6.70548        -0.192014      0.566330      0.108861
O       1.82127      7.41805     10.99114         0.216697      0.474005      0.332597
O      13.21673      7.51173     11.10025         0.581537     -1.022673      0.630651
O       1.78956     11.50885      2.57165         0.065502     -1.131870      0.197885
O       1.87859     11.28104     15.19621         0.447676      0.344442      0.042804
O      13.36745     11.39729      2.53296        -0.520912      0.225876     -0.021235
O      13.17058     11.43061     15.13053         0.286150     -0.953096     -0.059457
O       1.83080     11.42123      7.04754         0.138066     -0.846235     -0.469034
O      13.28815     11.39632      6.81729        -0.103132     -0.838065      0.021556
O       2.08728     11.33176     11.03538        -0.024632     -0.768542     -0.292242
O      13.41477     11.23566     11.17862        -0.821700      1.094538      0.060971
O       5.54825      3.87546      2.40503         0.331121     -1.138120      0.499730
O       5.58854      3.82820     15.29991         0.575401     -0.694109      0.007115
O       5.47881     15.18576      2.48812         0.297770      0.324866      0.395633
O       5.78443     15.10762     15.22373         0.038094      1.449797      0.886287
O       5.75468      3.77385      6.84441        -0.445870     -0.664913     -0.653358
O       5.73144     15.10225      6.84652        -0.491199      0.807561     -0.270720
O       5.56512      3.79098     10.98972        -0.014064     -1.058902     -0.372631
O       5.83058     15.19924     10.99316         0.316872     -0.883517      0.172934
O       5.56392      7.60847      2.77250         0.462910      0.514289     -0.017813
O       5.81608      7.67954     15.40298        -0.202020     -0.661927     -0.382131
O       5.72306      7.58314      6.73646        -0.397084     -0.077453     -0.299025
O       5.83152      7.50874     10.88568         0.293916      0.328469      0.108467
O       5.71116     11.34426      2.62688        -0.328260      0.859491     -0.193514
O       5.58612     11.39750     15.36812         0.122148     -0.040507      0.342905
O       5.78314     11.36858      6.90364        -0.903026      0.878427     -0.437491
O       5.50409     11.29455     11.05246         0.387371      0.755446     -0.057401
O       9.40210      3.77538      2.31931         0.086668     -1.097006      0.436704
O       9.40197      3.79580     15.28844         0.553616     -0.368408      0.410393
O       9.40785     15.11284      2.77895         0.300560      0.678233     -0.932602
O       9.48874     15.12297     15.26918        -0.282306     -0.194938      0.318336
O       9.46625      3.69594      6.76639         0.536761      0.974973     -0.194438
O       9.31505     15.14010      6.75401         1.149994     -0.281975     -0.064281
O       9.63599      3.66497     11.19716        -0.349034      0.612807     -0.228636
O       9.33895     15.09749     11.15901         0.125058      0.480116     -0.176016
O       9.37423      7.61860      2.50359         0.727639     -0.052582      0.053235
O       9.34254      7.59968     15.31355        -0.023469     -0.235489     -0.107962
O       9.49429      7.54163      6.61002         0.147684     -0.061185      0.259820
O       9.41320      7.54564     11.23338        -0.372304     -0.303244     -0.632887
O       9.32197     11.37250      2.58175         0.569478      0.160073     -0.025913
O       9.65180     11.39592     15.28769        -0.558758      0.088255     -0.025633
O       9.51883     11.39747      6.91672         0.085647     -0.110040     -0.605431
O       9.63013     11.30221     10.89654         0.012844     -0.064222      0.361172
