  # total energy = -7879.46985930 
CRSYTAL
PRIMVEC
    15.6000000000000000    0.0000000000000000    0.0000000000000000
     0.0000000000000000   15.6000000000000000    0.0000000000000000
     0.0000000000000000    0.0000000000000000    17.640000000000000
PRESSURE
-5.29329 -5.23533 -0.7142 -0.108714 0.41955 -0.078037
PRIMCOORD
320 1
Pb       3.80499      3.91074      4.31445         0.276668     -0.004938      0.223162
Pb       3.86398      3.84060     17.54260        -0.130940     -0.087366     -0.128108
Pb       3.98115      0.10068      4.35328        -0.164846     -0.385483     -0.735499
Pb       3.90861     15.51099     17.52820        -0.163565      0.193525      0.061692
Pb      15.58338      3.84948      4.37494        -0.265116      0.228530     -0.126135
Pb      15.50801      3.92322     17.59845         0.224644     -0.436353     -0.474539
Pb      15.57203      0.02109      4.44059         0.620386      0.291220     -1.187763
Pb       0.06810     15.51275     17.52202        -0.296134      0.448205     -0.810469
Pb       3.95275      3.81179      8.73558        -0.543335      0.572545     -0.193010
Pb       3.90154     15.52719      8.74020         0.339198      0.133651     -0.284006
Pb      15.53828      3.87680      8.76351         0.418140      0.428636     -0.562248
Pb       0.02168     15.40187      8.82223         0.227608      0.214551     -0.116063
Pb       3.82784      3.92019     13.25544         0.145814     -0.156326     -0.735202
Pb       3.77737     15.52017     13.13786         0.107560      0.430785      0.259318
Pb      15.49193      3.85740     13.06839         0.127986      0.076861     -0.070781
Pb      15.57438     15.57459     13.12770        -0.274606     -0.147541     -0.065606
Pb       3.85185      7.73226      4.45226        -0.324593      0.010347     -0.753844
Pb       3.79825      7.69896      0.00409         0.010335      0.232330     -0.484515
Pb      15.51083      7.88295      4.37277         0.196492     -0.482656     -0.327797
Pb      15.54946      7.72952     17.62178         0.352516     -0.138500     -0.308419
Pb       3.96333      7.75188      8.69348        -0.748948     -0.381978      0.103770
Pb      15.53887      7.67390      8.79892         0.417628      0.119470     -0.382201
Pb       3.82577      7.67881     13.18774         0.060492      0.091228     -0.421831
Pb      15.58294      7.78934     13.21666        -0.375654      0.072965     -0.668717
Pb       3.89153     11.73270      4.37546        -0.219615      0.211298     -0.252069
Pb       3.86426     11.69350      0.04093         0.324667     -0.313194     -0.969548
Pb      15.53424     11.71009      4.43645         0.448270     -0.309707     -0.643739
Pb      15.54900     11.70450     17.63946        -0.094282     -0.096252     -0.830407
Pb       3.83345     11.60327      8.75435         0.201686      0.103280     -0.691504
Pb      15.53255     11.72626      8.77692         0.506811     -0.650013     -0.237338
Pb       3.87163     11.73932     13.17027        -0.284505     -0.506386     -0.003456
Pb      15.55109     11.65195     13.09888         0.026818     -0.312790     -0.002467
Pb       7.70634      3.97050      4.34297         0.541440      0.541074     -0.186691
Pb       7.71943      3.84884     17.52743         0.217281      0.442060     -0.001562
Pb       7.81549      0.13407      4.33435         0.070637     -0.573765     -0.746097
Pb       7.86612      0.01868     17.52963        -0.045385     -0.182359     -0.116891
Pb       7.75144      3.82141      8.83727         0.402905      0.166849     -0.613108
Pb       7.73117     15.49559      8.84214         0.582324     -0.044861     -0.544251
Pb       7.71200      3.93159     13.14518         0.138920     -0.220024      0.166907
Pb       7.73720     15.51330     13.22197        -0.133894      0.141862     -0.884077
Pb       7.73043      8.00706      4.35647         0.333972     -0.922376     -0.535771
Pb       7.76149      7.81630      0.07786         0.158755     -0.139919     -0.722625
Pb       7.76500      7.76928      8.76624         0.335413     -0.057288     -0.737303
Pb       7.60110      7.75754     13.15136         0.498849     -0.168204      0.313895
Pb       7.81145     11.81674      4.37101         0.289344      0.267056     -0.498391
Pb       7.74429     11.64961      0.02668         0.050894      0.136474     -0.468034
Pb       7.71547     11.68371      8.84357         0.255420      0.283372     -1.005291
Pb       7.86778     11.57794     13.24891        -0.031204      0.238550     -0.618238
Pb      11.58182      3.96186      4.38153         0.669293      0.368624     -0.219043
Pb      11.73447      3.92106     17.57607         0.119484      0.080034     -0.534689
Pb      11.74185      0.13633      4.45199        -0.497850      0.139475     -1.054726
Pb      11.64412     15.58372     17.57898         0.337116     -0.178236     -0.771155
Pb      11.66503      3.85786      8.77960         0.051376      0.013759     -0.116036
Pb      11.73809     15.59031      8.89235        -0.401540      0.063155     -0.603818
Pb      11.54930      3.86993     13.22449         0.224679      0.123162     -0.807418
Pb      11.68105     15.45613     13.13197         0.392607     -0.051033     -0.494739
Pb      11.60199      7.82912      4.42234         0.200261     -0.296840     -0.819021
Pb      11.50966      7.84370     17.63499        -0.221147     -0.338290     -0.492309
Pb      11.67838      7.75070      8.72762         0.256707      0.376827      0.019684
Pb      11.58666      7.78161     13.20157         0.473167     -0.212037     -0.656953
Pb      11.73393     11.91830      4.34932        -0.315148     -0.880793     -0.406374
Pb      11.78912     11.68212     17.58588        -0.116036      0.623982     -0.472033
Pb      11.72452     11.58566      8.69900        -0.260035     -0.141711      0.288272
Pb      11.71206     11.65649     13.09312         0.206633      0.173046     -0.274054
Ti       1.95743      2.00933      2.33033        -0.087979     -1.030204      1.589308
Ti       1.87291      1.91328     15.48475         0.553717     -0.208692      2.234997
Ti       1.96909     13.77717      2.19891         0.265264     -0.294383      2.672686
Ti       1.96765     13.55351     15.58446        -0.229288      0.662477      1.834252
Ti      13.65365      1.88253      2.31169        -0.230879      0.575784      2.102544
Ti      13.59601      1.91893     15.52253         0.658026     -0.410909      1.859862
Ti      13.69199     13.64341      2.25835        -0.042718      0.201358     -0.228411
Ti      13.67026     13.63539     15.41355         0.010322      0.117198      1.550052
Ti       2.02213      1.90194      6.84140         0.169627      0.862553     -0.879648
Ti       2.08885     13.63958      6.66358         0.072331     -0.829416      0.597150
Ti      13.78826      1.77621      6.80121        -0.673913      1.637326      0.097220
Ti      13.76088     13.61006      6.77627        -0.339903     -0.964459      0.490268
Ti       1.99411      1.91426     11.10257         0.105942      0.514615      0.411130
Ti       1.92880     13.53101     11.10043        -0.513767      0.210338      3.510309
Ti      13.67059      1.92354     11.09212        -0.223559     -0.153799      1.580854
Ti      13.68565     13.58602     11.07368        -0.579917      0.059139      1.654373
Ti       1.96788      5.86303      2.31879        -0.305114      0.129798      0.666903
Ti       1.94888      5.75352     15.51018         0.176146      0.226710      2.246778
Ti      13.76153      5.77799      2.39102        -1.129650      0.243469      1.880991
Ti      13.63714      5.88545     15.56841        -0.397218     -0.351174      0.601010
Ti       1.96992      5.79914      6.68491         0.038451      0.089236      1.232701
Ti      13.59507      5.75209      6.77118         0.452629      0.575346     -0.188591
Ti       1.89638      5.76993     11.18104        -0.034084      0.134006      0.150762
Ti      13.58198      5.84049     11.05232         0.276365     -0.429274      1.609592
Ti       2.01907      9.81558      2.33557        -0.448434     -0.381831      1.794343
Ti       1.89836      9.70843     15.62770         1.062179      0.125495      0.115867
Ti      13.71681      9.77781      2.39101        -0.935358     -0.836313      0.209565
Ti      13.58864      9.69094     15.75285         0.862198      0.677917     -1.579861
Ti       1.96888      9.64575      6.71227        -0.755597      0.062559      0.498057
Ti      13.72072      9.74033      6.79634        -0.344861     -1.048555     -0.089991
Ti       2.05243      9.62540     11.15071        -1.646154      0.063365      1.973888
Ti      13.64603      9.68986     11.08900         0.440869      0.413629      0.642970
Ti       5.87954      2.03366      2.37678        -0.089342     -0.454927      0.279802
Ti       5.73971      1.95349     15.60131         0.395099     -0.180742      0.367143
Ti       5.82490     13.61224      2.30565         0.549227      0.876120      2.048201
Ti       5.93734     13.62425     15.58162        -0.650074     -0.610763      1.384816
Ti       5.90373      1.94474      6.80753        -0.139919      0.111416     -0.544053
Ti       5.94170     13.64902      6.69085         0.540665      0.046224     -0.076952
Ti       5.83854      1.96929     11.21767         0.044068     -0.699829      1.901868
Ti       5.82345     13.60796     11.16484         0.520543      0.272725      1.636691
Ti       5.80011      5.83225      2.27438         0.931582      0.654602     -0.059169
Ti       5.78103      5.88348     15.64684         0.896643     -0.319053     -0.724868
Ti       5.87265      5.81552      6.69760        -0.318368     -0.175748      1.158225
Ti       5.88670      5.82534     11.06994        -1.016365     -0.370788      2.432493
Ti       5.85164      9.80956      2.44366         0.442640     -0.794751      0.942100
Ti       5.89739      9.68055     15.62528        -1.060351      0.903201     -0.242597
Ti       5.82996      9.72379      6.75571         0.402187      0.534531      0.716415
Ti       5.88927      9.70246     11.15936        -0.592125      0.426542      0.829783
Ti       9.78440      2.06740      2.32678         0.287918     -0.604615      1.045750
Ti       9.68835      1.97598     15.51120         0.809433     -0.091980      3.262523
Ti       9.77627     13.69774      2.29986        -0.438974     -0.222914      0.394973
Ti       9.74649     13.61680     15.50636         1.134896     -0.194676      0.725098
Ti       9.82150      1.94142      6.81388        -0.352552     -0.189857      1.382293
Ti       9.94077     13.63309      6.76620        -1.365406     -0.311106      2.250826
Ti       9.79388      1.83029     11.16852        -0.351108      0.061850     -0.175388
Ti       9.72279     13.55354     11.04388         0.164657      0.520234      1.818036
Ti       9.79711      5.87291      2.21444        -0.467911     -0.083349      0.030679
Ti       9.65627      5.78121     15.56306         0.325101      0.947520      2.337132
Ti       9.73566      5.84588      6.86649        -0.369797     -0.393161     -0.198408
Ti       9.69947      5.80608     11.08355         1.027421     -0.378981      1.443149
Ti       9.76261      9.76429      2.33388         0.246058      0.469648      1.964945
Ti       9.72855      9.80079     15.50669        -0.628566     -0.600954      0.262451
Ti       9.74509      9.76374      6.71203         0.427679     -0.301869      1.657605
Ti       9.73383      9.63374     11.11585         0.803250      0.382542      0.974167
O       2.01348      1.98407      0.65383        -0.212294      0.140319     -1.150479
O       1.91267      2.00698     13.79465         0.131931     -0.103419     -2.040140
O       1.96135     13.74572      0.48843        -0.124270     -0.156444     -0.902737
O       1.98996     13.53859     13.88994         0.489421     -0.205279     -1.964387
O      13.71912      2.04182      0.64110        -0.051115      0.015982     -1.603723
O      13.55076      1.81469     13.82041         0.088758      0.360386     -1.016242
O      13.61152     13.57049      0.50438         0.235210     -0.148412      0.445867
O      13.63598     13.64164     13.68082        -0.155847     -0.070222     -0.179381
O       2.00077      1.95157      5.06534         0.003948     -0.418795      0.292831
O       2.11880     13.62130      4.93142        -0.605577      0.315626      0.301150
O      13.63493      1.80990      5.02489         0.316348     -0.521209      0.761120
O      13.76774     13.49245      5.02155         0.037063      0.746946     -0.577544
O       2.19141      1.94378      9.31521        -0.755131     -0.271725      0.690520
O       1.93636     13.61235      9.43209         0.276192      0.059816     -2.308499
O      13.71314      1.80134      9.36146        -0.006952     -0.141818     -0.643258
O      13.82816     13.55570      9.33085        -0.052415      0.277163     -1.230140
O       2.08931      5.84225      0.55463        -0.366553     -0.082946      0.348965
O       1.97037      5.77561     13.79177        -0.015984      0.112175     -1.027153
O      13.84147      5.63954      0.68121        -0.257288      0.291332     -1.543916
O      13.66107      6.12116     13.84944        -0.084404     -0.524687     -0.186984
O       2.03927      5.87838      4.96082         0.184305     -0.073324     -0.756255
O      13.55513      5.81781      5.01665         0.024722     -0.023286      0.714683
O       1.83497      5.85838      9.46425        -0.033534     -0.191648     -0.950578
O      13.76898      5.80667      9.32585        -0.195467     -0.166218     -0.427024
O       1.96556      9.71010      0.62051        -0.048939      0.175140     -0.566898
O       1.88722      9.79505     13.88370         0.166596     -0.232189     -0.418186
O      13.66990     10.01490      0.64562         0.163283     -0.611556     -0.828800
O      13.58424      9.64658     14.00656         0.116974     -0.116707     -0.309663
O       2.05557      9.61356      4.95157        -0.175299      0.014942      0.228138
O      13.77495      9.62775      5.03305        -0.144788      0.173005     -0.302188
O       1.96608      9.45350      9.48940         0.231248      0.395464     -2.011930
O      13.64048      9.79525      9.35981         0.067566     -0.118200     -0.606857
O       5.96099      2.29175      0.68483        -0.221966     -0.774684     -1.122203
O       5.79871      1.94469     13.88429        -0.090309     -0.005976     -0.571814
O       5.97081     13.45677      0.60758        -0.022226     -0.043652     -0.888029
O       5.93151     13.68005     13.84505        -0.355311     -0.288774     -0.239106
O       5.92267      2.00663      5.03364        -0.016562     -0.437553      0.200015
O       5.94927     13.76000      4.92842         0.056890     -0.109317      0.532865
O       5.86427      1.92982      9.50122        -0.106130      0.044803     -1.046286
O       5.80806     13.65231      9.44967         0.003125      0.061618     -0.930291
O       5.79900      5.83642      0.49929        -0.060534     -0.233953      0.358860
O       5.86022      5.83534     13.83467        -0.247859      0.494489      0.558742
O       5.86708      5.76064      4.96737         0.037081      0.264723     -0.305307
O       5.92562      5.78700      9.38412         0.148752      0.035364     -1.340265
O       5.98548      9.92403      0.75385        -0.119555      0.088580     -1.609712
O       5.91952      9.63228     13.83763         0.182364      0.127669      0.008119
O       5.88042      9.73184      5.04451        -0.199907     -0.218320     -0.969479
O       5.81366      9.79241      9.45718        -0.011772     -0.054918     -1.479349
O       9.79671      1.98845      0.60623        -0.102706      0.016496     -0.529391
O       9.78402      2.06887     13.85702         0.083588     -0.412252     -2.692391
O       9.78214     13.72250      0.53889         0.030868      0.102092      0.157625
O       9.86621     13.65775     13.77726        -0.522758     -0.065337     -0.388357
O       9.82751      1.87419      5.08273         0.069464      0.185121     -0.032186
O       9.85507     13.53052      5.07630         0.256325      0.156087     -1.789159
O       9.75313      1.77660      9.39234         0.141450      0.218073      0.488640
O       9.61094     13.62399      9.32602         0.386600     -0.240944     -0.561120
O       9.92429      5.80617      0.37751        -0.317925      0.364267      1.440815
O       9.74086      5.84436     13.86830         0.071628      0.136304     -1.803753
O       9.68589      5.70717      5.13474         0.347916      0.516240     -0.269913
O       9.76316      5.81443      9.38112        -0.466850     -0.114047     -1.298270
O       9.74823      9.68997      0.64131         0.048586      0.124378     -1.753571
O       9.49942      9.76944     13.73236         0.768373     -0.350861     -0.016140
O       9.86598      9.58411      4.99786        -0.403222      0.288694     -0.483730
O       9.88564      9.75479      9.41197        -0.576488     -0.055782     -0.415027
O       3.91481      1.90865      2.73785         0.172525      0.520424      0.306596
O       3.91748      1.79249     16.09926         0.482251      1.227548     -0.415140
O       3.90830     13.68516      2.68006         0.342879     -0.239648     -0.063606
O       3.91223     13.52039     16.25404         0.739561      0.527171     -1.316354
O      15.55332      1.81084      2.82428         0.559819      0.398941      0.131623
O       0.08260      1.96813     16.00482        -1.068588     -0.361227     -0.071266
O       0.05957     13.74251      2.51098        -0.537380     -0.407056      0.782181
O       0.02687     13.78193     15.78515         0.173951     -0.387340      0.738742
O       3.96015      1.96310      7.15386         0.077797     -0.474337      0.396061
O       4.04432     13.57638      7.03451        -1.848604      0.028941      0.629579
O       0.10294      1.84057      7.13259        -0.926042      0.047231      0.229986
O       0.12613     13.58518      7.31040        -0.495758      0.381478     -0.897269
O       3.85128      2.03005     11.59094        -0.286534     -0.152299      0.041339
O       3.82571     13.60964     11.69159         0.569097     -0.165780     -0.596195
O      15.55788      1.98938     11.65699         0.054880     -0.635089     -0.767900
O      15.53924     13.57965     11.57883         1.707839     -0.021524     -0.146815
O       3.89142      5.90485      2.76664         0.349006     -0.427306     -0.018716
O       3.92702      5.92020     15.98287        -0.619049     -0.523480     -0.044187
O      15.56325      5.75698      2.89122         1.281900     -0.087323     -0.252427
O       0.10682      5.88069     16.06325        -0.744780     -0.222008     -0.306192
O       3.93904      5.88128      7.18613         0.395558     -0.305277     -0.198594
O       0.05267      5.67264      7.07484        -0.784071      0.575818      0.312276
O       3.83142      5.73953     11.48143         0.986539      0.218456      0.492593
O      15.54963      5.76297     11.59197        -0.917045      0.297402      0.122643
O       3.96981      9.72670      2.84764        -0.746266     -0.180748     -0.278217
O       3.93143      9.82701     15.96380         0.191887     -0.298281      0.409789
O      15.58630      9.79363      2.83882         1.279047     -0.458376     -0.123594
O       0.05401      9.78158     15.99698        -0.679113     -0.647554      0.874481
O       3.82177      9.72549      7.29103         1.021531      0.194232     -0.334854
O      15.58770      9.57294      7.24097         0.460579      0.407928     -0.305452
O       3.89376      9.68570     11.59853         0.810419      0.215932      0.191510
O      15.58355      9.86707     11.50821        -0.350405     -0.888833      0.353283
O       7.81731      2.08586      2.77080         0.353585     -0.393682      0.167603
O       7.85496      1.93682     16.02161        -0.855884     -0.009218     -0.058574
O       7.87669     13.62244      2.77272        -0.144066      0.143742      0.098391
O       7.83591     13.55778     15.99088        -0.151710      0.658281     -0.192052
O       7.80607      2.01528      7.31589         0.092251     -0.582829     -0.445991
O       7.82908     13.61454      7.21706        -0.317343     -0.070814     -0.006097
O       7.78276      1.85122     11.68809         0.050594      0.225681     -0.329471
O       7.78640     13.68284     11.56070        -0.302020     -0.004417     -0.085809
O       7.85616      5.65383      2.66745        -0.285278      0.488838     -0.298182
O       7.75433      5.86413     16.02596         0.160114      0.066829     -0.055298
O       7.81061      5.78913      7.25363        -0.818791      0.537783      0.108713
O       7.82108      5.87423     11.67585        -0.690462     -0.684498     -0.806278
O       7.81005      9.74252      2.81980         0.093005      0.339742      0.409531
O       7.86391      9.73833     16.03860        -0.730597      0.053121      0.193348
O       7.80383      9.63685      7.11078        -0.014765      0.267046      0.301070
O       7.78863      9.66776     11.44888         0.295281      0.047836      0.254245
O      11.70826      1.86579      2.79387        -0.083557      0.402782      0.126024
O      11.77748      1.96449     16.07486        -1.107725      0.104101     -0.239935
O      11.75551     13.50853      2.66091        -0.093927      0.134744      0.361304
O      11.74542     13.56600     15.91622        -0.268660      0.395200      0.127710
O      11.74004      1.91382      7.28495        -0.246499     -0.595782     -0.263441
O      11.83595     13.52241      7.25478        -0.190605      0.651689     -0.494746
O      11.71072      1.84461     11.55549        -0.073394     -0.384360     -0.155845
O      11.77151     13.61621     11.49535        -1.031988      0.327409     -0.227248
O      11.62094      5.94154      2.86301         0.559691     -0.356495     -0.347992
O      11.75201      5.75359     15.91203         0.036709      0.380002      0.152660
O      11.68423      5.81474      7.29508         0.627720     -0.459640     -0.306736
O      11.61302      5.71591     11.51571         1.034834      0.788219      0.238038
O      11.66738      9.73011      2.73826         0.800728     -0.151327      0.221008
O      11.70895      9.76067     16.01874        -0.617678      0.052232      0.313738
O      11.73773      9.75249      7.24759        -0.170709     -0.242193     -0.447819
O      11.73889      9.72724     11.57593        -0.596987     -0.321353      0.288163
O       1.90139      3.94773      2.89013         0.279590     -0.975519     -0.593480
O       2.06140      3.80104     15.96145         0.190727      1.314467     -0.157983
O       2.02529      0.02222      2.76317        -0.280788      0.113884      0.083223
O       2.11490      0.04912     15.99012        -0.720694     -1.162250     -0.015483
O      13.62445      3.89165      2.89487        -0.076022     -0.794588     -0.158761
O      13.72036      3.86747     16.06491         0.078403      0.533576     -0.571894
O      13.55011     15.53476      2.60513         0.343531     -0.204306      0.598791
O      13.71806     15.58980     15.98372        -0.448538      0.007249      0.006675
O       2.05044      3.90964      7.12577         0.014011     -0.863252      0.358451
O       2.02838     15.52171      7.15989         0.171276     -0.128907      0.035861
O      13.64430      3.77816      7.25499         0.223284      0.059605     -0.245128
O      13.74756     15.47945      7.22910        -0.140740      0.735254     -0.200622
O       1.79613      3.86603     11.61849         0.553406     -0.746122     -0.204968
O       1.88841     15.57462     11.63072         0.219609      0.248936     -0.718718
O      13.56774      3.85195     11.45293         0.245782     -0.092829      0.112139
O      13.72365     15.47879     11.63826        -0.269286      1.196749     -0.731183
O       1.96071      7.68508      2.71486        -0.173654      1.392663      0.170336
O       2.06525      7.71611     15.99680        -0.548238      0.715326     -0.091751
O      13.83158      7.69466      2.69099        -0.613930      1.428194      0.073951
O      13.63331      7.77179     16.11200         0.367409     -0.090391      0.561190
O       2.06581      7.72074      7.15703        -0.518154      0.296650     -0.055589
O      13.59973      7.75108      7.24033         0.240216     -0.571304     -0.217367
O       1.84387      7.70896     11.64451         0.463506      0.608392      0.422093
O      13.62554      7.74474     11.50933         0.078187      0.236430     -0.106285
O       2.05901     11.69262      2.82624        -0.419174     -0.081673     -0.731438
O       1.95902     11.70969     16.05683        -0.242656     -0.381189      0.217973
O      13.80189     11.60237      2.81306        -0.548038      1.710320      0.362880
O      13.77718     11.72598     15.96082        -0.292620     -0.150049      0.365201
O       1.84953     11.58613      7.10278         0.720313      0.543501      0.200478
O      13.69530     11.66936      7.00002         0.614753     -0.151643      0.844736
O       1.95667     11.65122     11.49386         0.321870      0.152267      0.117716
O      13.62363     11.71573     11.52252        -0.044801     -0.998217      0.254554
O       5.80820      3.95965      2.78094        -0.263207     -0.488885      0.309692
O       5.78169      3.91065     15.91031         0.158467     -0.359531      0.455927
O       5.96610     15.54804      2.65120        -0.163400      1.051970      0.290452
O       5.86825     15.57104     16.07800         0.424314     -0.435202     -0.184982
O       5.77835      3.92254      7.20116         0.704561     -0.552319      0.071565
O       5.81694     15.59697      7.24595         0.378993      0.153364     -0.157683
O       5.87178      3.87806     11.69090         0.012079      0.267281     -0.593610
O       5.66122      0.02584     11.77478         0.874998     -0.387799     -0.852527
O       6.00285      7.77693      2.61216        -0.354098     -0.147723      0.629603
O       5.83998      7.79892     16.11155         0.278690      0.441191     -0.032221
O       5.80584      7.81255      7.12171         0.347466     -0.271543      0.177915
O       5.80422      7.72400     11.47896         0.183865      0.262576      0.232455
O       5.86096     11.73794      3.03279         0.061795     -0.206925     -0.888679
O       5.93087     11.63970     16.08133        -0.000661      0.362902     -0.367920
O       5.85354     11.70832      7.16712         0.093794     -0.824564      0.268989
O       6.02014     11.72477     11.49942        -1.040055     -0.651563      0.370213
O       9.87830      3.96893      2.83093        -0.230265     -0.984328     -0.662271
O       9.69647      3.93498     15.87747         0.304549     -0.916527      0.317995
O       9.79459      0.04034      2.83825        -0.131813     -0.234979     -0.162309
O       9.79260     15.59720     15.94120        -0.180409     -0.014232      0.108149
O       9.72598      3.93539      7.28894         0.421445     -1.593852      0.104229
O       9.79125     15.47620      7.15109         0.259183      1.306657      0.186225
O       9.87639      3.80564     11.58203        -1.166071     -0.160950     -0.185971
O       9.68122     15.46221     11.50352         0.648496      0.948159      0.329014
O       9.71075      7.74867      2.69015        -0.235004      0.338386      0.138369
O       9.69904      7.89454     16.05642         0.739541     -0.715974     -0.117738
O       9.83390      7.75777      7.30000        -0.582619      0.655027     -0.375685
O       9.74967      7.68768     11.43891         0.133533      1.259463      0.380314
O       9.66761     11.72296      2.73288         0.606819     -0.204386      0.131858
O       9.75615     11.68315     15.79755         0.069212      0.038449      0.451451
O       9.80776     11.63974      7.19621        -0.291079     -0.124666     -0.161713
O       9.85903     11.69110     11.58520        -0.978517     -0.522092     -0.216033
