  # total energy = -7866.40030248 
CRSYTAL
PRIMVEC
    15.010000000000000    0.0000000000000000    0.0000000000000000
     0.0000000000000000   15.010000000000000    0.0000000000000000
     0.0000000000000000    0.0000000000000000    16.400000000000000
PRESSURE
17.8733 17.8601 9.99949 -0.058858 -0.032201 -0.065362
PRIMCOORD
320 1
Pb       3.90218      3.79060      4.27928        -1.087640     -0.346085     -1.443584
Pb       3.69656      3.74011      0.02183         0.328633      0.206622      0.180113
Pb       3.67434      0.03423      4.14094         0.514353     -0.182605     -0.723349
Pb       3.75182     14.91527     16.39839         0.032333      0.115271      0.471811
Pb      14.93662      3.72061      4.11431         0.420482      0.262597     -0.525514
Pb      14.98154      3.62096     16.34605         0.010118      0.418557      0.935790
Pb      14.96062      0.01597      4.20325         0.383682      0.025304     -0.804924
Pb      14.97031     14.89215      0.11734        -0.060191      0.539938     -0.191995
Pb       3.59795      3.77681      8.24054         0.615629      0.074627      0.155403
Pb       3.62579     14.97121      8.10164         0.765819      1.171973      1.040903
Pb      14.89306      3.82187      8.32730        -0.219305     -0.284339     -0.714421
Pb      14.88479     14.95633      8.15686        -0.203718      0.775829      0.536943
Pb       3.59279      3.72705     12.31669         0.371407      0.426600      0.204699
Pb       3.68025     14.93179     12.39624         0.014999      0.558497     -0.743199
Pb      14.95631      3.73418     12.41762         0.381510     -0.017598     -0.065063
Pb      15.00165     14.95530     12.37846        -0.424257     -0.029387     -0.726057
Pb       3.83828      7.40947      4.15340        -0.127779      0.174364     -0.509394
Pb       3.74868      7.43452      0.09376        -0.163207      0.344759     -0.572059
Pb       0.01191      7.49626      4.16709         0.220835     -0.557696     -0.434225
Pb      14.95121      7.50413      0.00293         0.661342      0.128222      0.088204
Pb       3.76560      7.49858      8.07469        -0.078911     -0.035191      0.798292
Pb      14.99165      7.52028      8.33409        -0.345259     -0.066551     -0.300287
Pb       3.68476      7.58249     12.28748        -0.227496     -0.233419     -0.701955
Pb      14.91946      7.42018     12.35514         0.962933      0.440231     -0.121985
Pb       3.77396     11.20406      4.35851         0.465372      0.097577     -1.150564
Pb       3.76842     11.14863     16.31434         0.146805      0.018662      0.675789
Pb       0.12481     11.19551      4.11887        -0.090342      0.027799     -0.257865
Pb      14.99651     11.31865      0.05240         0.192996     -0.718029     -0.025847
Pb       3.83476     11.27397      8.14971        -0.078091     -0.496508      0.869114
Pb       0.03357     11.26872      8.21069        -0.302864     -0.269764      0.626754
Pb       3.76917     11.32751     12.27086        -0.440884     -0.690907     -0.340967
Pb       0.02799     11.28682     12.35189        -0.056316     -0.290778     -0.682479
Pb       7.47822      3.70036      4.06051        -0.357538      0.221502     -0.548359
Pb       7.49543      3.70190     16.34990        -0.399510      0.507033     -0.190804
Pb       7.48646     14.90211      4.14371        -0.207115      0.421074     -0.571818
Pb       7.37117     14.98345      0.00660         0.271838     -0.095520     -0.223871
Pb       7.39067      3.66068      8.13232         0.378161      1.110491      1.076487
Pb       7.51142      0.19657      8.12068        -0.020239     -0.802823      0.711950
Pb       7.36179      3.78519     12.32609         0.412108     -0.193540     -0.306580
Pb       7.46819     14.89073     12.38287         0.347142     -0.052497     -0.303478
Pb       7.50232      7.53162      4.07354         0.337788     -0.632779     -0.141378
Pb       7.49815      7.54291     16.33284         0.472239     -0.797170      0.371290
Pb       7.46119      7.46644      8.30957        -0.049411      0.003741     -0.196153
Pb       7.46987      7.55547     12.35946        -0.240574     -0.165394     -0.233693
Pb       7.69846     11.24175      4.19280        -0.674475     -0.433406     -0.369369
Pb       7.53266     11.23405     16.37091        -0.161037     -0.075268     -0.215360
Pb       7.58377     11.33693      8.08044        -0.000756     -0.613257      1.175572
Pb       7.47108     11.22680     12.21292         0.353342      0.572468      0.308624
Pb      11.08164      3.79350      4.11701         0.833842      0.207622     -0.491412
Pb      11.26597      3.66685     16.37082        -0.559879      0.592967      0.342451
Pb      11.28096     14.99446      4.13211        -0.304433     -0.078391     -0.514041
Pb      11.18287     14.91868      0.10209         0.000179      0.008323     -0.453169
Pb      11.15764      3.73758      8.16668         0.354387     -0.210127      0.849426
Pb      11.15402      0.06043      8.19656         0.622559      0.375972      0.273560
Pb      11.21450      3.70326     12.38429        -0.460134     -0.189202     -0.401615
Pb      11.23690      0.11249     12.40295        -0.139033     -0.794963     -0.243517
Pb      11.42253      7.49022      4.19135        -0.938722     -0.825570     -0.810137
Pb      11.28184      7.50519      0.04267        -0.896353     -0.365082     -0.008476
Pb      11.23653      7.47574      8.21571         0.069988     -0.426463      0.722530
Pb      11.32689      7.46431     12.29756        -0.547651      0.181500     -0.023605
Pb      11.46019     11.12284      4.13246        -0.908233      0.390908     -0.237431
Pb      11.38936     11.11078     16.37718        -0.672415      0.427329      0.051383
Pb      11.29311     11.25031      8.26616        -0.077976     -0.255031     -0.028727
Pb      11.26618     11.26863     12.26439        -0.853226      0.221936      0.643472
Ti       1.84492      1.87159      2.07147         0.790807      0.649294      2.140866
Ti       1.86187      1.84525     14.49299        -0.661567     -0.370930     -0.764721
Ti       1.91558     13.04128      2.16568         0.481530      1.046870      0.267938
Ti       1.80122     13.11250     14.49774         0.047664     -0.199169     -0.284065
Ti      13.05706      1.87842      2.08152         0.375378      0.642695      0.738578
Ti      13.08133      1.86824     14.50350        -0.802596     -1.635435     -1.186033
Ti      13.12072     13.12254      2.09401        -0.525043      0.511434      0.663624
Ti      13.06221     13.08508     14.44167        -0.846621      0.258479     -0.209127
Ti       1.82837      1.85886      6.24955        -0.120287      0.984887     -0.283765
Ti       1.90114     13.09898      6.31087        -0.180960      0.823801     -0.232915
Ti      13.12196      1.85805      6.08420        -0.588150      0.637591      1.196581
Ti      13.10408     13.09272      6.21300         0.644336     -0.155430     -0.183712
Ti       1.80740      1.90258     10.21308         1.783142     -1.173391      0.351685
Ti       1.88639     13.15477     10.27492        -1.159293     -0.659123      0.573647
Ti      13.15156      1.87970     10.42112        -1.395907     -1.077207     -1.028024
Ti      13.06176     13.09637     10.26105         0.426833      1.188824      0.743497
Ti       1.81035      5.63591      2.08826         0.316780     -1.537896      0.672352
Ti       1.81584      5.62078     14.49704         0.100631      0.650888     -0.929067
Ti      13.14001      5.66380      1.96514        -1.232074     -1.167342      1.658202
Ti      13.10182      5.65436     14.39874        -0.646618     -0.630499      0.155469
Ti       1.80172      5.56607      6.20095        -0.198505      0.693639      0.123973
Ti      13.06875      5.55769      6.26867         0.925701      0.264335     -0.899836
Ti       1.79747      5.59090     10.35257         1.303149      1.593072      0.286570
Ti      13.04946      5.57151     10.32468         0.031718      1.969008     -0.553778
Ti       2.00833      9.36706      1.99871        -0.233820     -0.440646      0.832673
Ti       1.87597      9.37063     14.36928        -0.058131     -0.606510     -0.552704
Ti      13.21819      9.37899      2.14890         0.585315     -1.474011     -1.317682
Ti      13.16150      9.34504     14.41404         0.106896      0.391977     -0.723911
Ti       1.86481      9.32891      6.23828        -0.443040     -0.424547      0.803775
Ti      13.13893      9.30510      6.24655         0.584463     -0.367873      1.800670
Ti       1.78887      9.39869     10.22307         0.161932      0.012701      1.175971
Ti      13.02973      9.37988     10.34816         0.893590     -0.716659     -0.555911
Ti       5.55886      1.84512      2.08005         0.340273     -0.204449      2.103886
Ti       5.50505      1.91031     14.30127         1.189141     -0.061765      0.518693
Ti       5.62692     13.06104      2.10827        -0.613957      0.042472      1.383342
Ti       5.54220     13.09635     14.39664         1.643111      0.350224      0.091512
Ti       5.63309      1.90136      6.21349         0.309668     -0.610668      0.143192
Ti       5.69221     13.14378      6.21928        -0.343735      0.486663     -0.723846
Ti       5.55552      1.89941     10.30529        -0.443900      0.064026     -0.107195
Ti       5.57967     13.24600     10.19164         0.537671     -1.031767      0.391271
Ti       5.56799      5.61459      2.00865         0.245255     -0.562482      0.822873
Ti       5.53471      5.68672     14.34973         0.329899     -1.279414      0.757602
Ti       5.57401      5.59505      6.22749         1.575632      0.817564     -0.144714
Ti       5.58369      5.63448     10.31698        -0.986166      0.541829     -0.187758
Ti       5.69846      9.38209      2.10506        -0.852835     -0.301795      0.186975
Ti       5.65821      9.37193     14.35317        -0.883654      0.155050      0.448558
Ti       5.71608      9.35505      6.18767        -0.455305     -0.305010      0.701459
Ti       5.55605      9.47360     10.27631        -0.763779     -1.185157     -0.820110
Ti       9.31161      1.80674      2.04785        -0.075640     -0.242777      0.441322
Ti       9.24556      1.82783     14.40622         0.645040     -0.334222      0.050234
Ti       9.32020     13.02386      2.03604         1.475776      1.289147      0.330282
Ti       9.36734     13.07099     14.49110        -0.141136      0.366602      0.261871
Ti       9.37777      1.80166      6.14370         0.915572      0.256054     -0.286704
Ti       9.47834     13.06102      6.14112        -0.521076      0.269785      1.018236
Ti       9.34007      1.91519     10.37293         0.724835      0.307396      0.066573
Ti       9.37104     13.17516     10.22495        -0.113538     -0.312372      1.170312
Ti       9.30222      5.58317      2.05524         0.565484      2.021594     -0.258095
Ti       9.34304      5.55598     14.30693        -0.329859      0.973193      1.064698
Ti       9.30979      5.61965      6.19561         0.583926     -0.250181      0.495023
Ti       9.26561      5.67652     10.33123         1.347527     -0.653663      0.310037
Ti       9.40508      9.37871      2.05869         0.126822     -1.911890     -0.116472
Ti       9.41794      9.31538     14.35969        -0.719594     -0.023355     -0.149505
Ti       9.42640      9.30097      6.28851        -0.353711     -0.328289     -1.013831
Ti       9.27365      9.35701     10.34467         0.869643      0.665347      0.289776
O       1.89949      1.89499      0.31176         0.007297     -0.325303     -1.188920
O       1.86768      1.91084     12.66280        -0.224220     -0.622144     -0.051402
O       1.88772     13.11383      0.37962        -0.396470     -0.132010     -1.237295
O       1.78126     13.14804     12.68289         0.272742      0.052341     -0.013444
O      13.00146      1.75483      0.28997         0.081672      0.114994     -1.294702
O      13.11316      1.93734     12.57399         0.283505     -0.138530      0.774770
O      12.96935     13.13669      0.28367         1.070626     -0.242833      0.290270
O      13.00794     13.07897     12.66804         0.548927     -0.231338     -1.017309
O       1.69279      1.94748      4.45661         0.545273     -0.961404      0.002733
O       1.82115     13.02941      4.51645         0.245248      0.420702     -0.689917
O      13.04186      1.94374      4.32045         0.585642     -0.183323     -0.822940
O      13.11120     12.99593      4.38585         0.212722      0.271854     -0.080700
O       1.83713      1.89851      8.41846        -0.091226      0.387367      0.008340
O       2.00544     13.18165      8.50473        -0.439885     -0.365914     -0.946347
O      12.96931      1.78007      8.60862         0.480540      0.156337     -0.323722
O      13.10405     13.23315      8.42522        -0.304509     -0.691695      0.510053
O       1.75449      5.54502      0.27121         0.203152     -0.039534     -0.034317
O       1.89044      5.56178     12.65631        -0.342804      0.011427     -0.271038
O      13.17133      5.63075      0.17005        -0.199621     -0.006246     -0.416958
O      13.07552      5.65413     12.55319         0.061143     -0.602429      0.309967
O       2.00939      5.63483      4.42709        -0.886276      0.193177     -0.066057
O      13.10551      5.63444      4.38121        -0.262425     -0.062791      0.952154
O       1.77618      5.56789      8.55092         0.037539     -0.077861     -0.676040
O      13.11411      5.73540      8.48108         0.547050     -0.628984      0.262028
O       1.99371      9.31904      0.20214        -0.480290      0.436370      0.804543
O       1.83055      9.41192     12.51651        -0.328882      0.150663      1.188756
O      13.25052      9.19464      0.28877        -0.647101      1.018190      0.366583
O      13.07301      9.39675     12.59659         0.476130      0.033396      0.217299
O       1.77207      9.31731      4.44705        -0.068884      0.214430     -0.136573
O      13.22373      9.31060      4.45578         0.097939      0.066272     -1.598555
O       1.87683      9.34141      8.40991         0.115230      0.245749      0.478032
O      13.04142      9.38112      8.50188        -0.206697     -0.020750      0.434664
O       5.50186      1.80845      0.35056         0.175737     -0.081591     -1.910301
O       5.51459      1.92692     12.51061         0.135721     -0.310655     -0.160597
O       5.67814     13.11728      0.32095        -0.183994      0.138599     -0.700308
O       5.66860     13.09749     12.60320        -0.453906      0.152479     -0.477662
O       5.74310      1.88909      4.43910        -0.120282      0.105440     -0.392549
O       5.56187     13.07184      4.41088         0.257586      0.021977      0.307627
O       5.64505      1.83068      8.49030         0.220429      0.417825     -0.347492
O       5.52226     13.19506      8.38556         0.439260     -0.259702      0.585622
O       5.38416      5.63680      0.22387         0.852547     -0.145813     -0.182298
O       5.60527      5.58111     12.54553        -0.275035      0.249925      0.372239
O       5.60286      5.51454      4.40637         0.076443      0.026964      0.042533
O       5.68174      5.62076      8.48039        -0.442256      0.233540      0.147423
O       5.59002      9.35606      0.28830         0.177799     -0.216705     -0.098632
O       5.59453      9.42960     12.55375         0.002411      0.010056      0.069151
O       5.78756      9.29960      4.42396        -0.354267      0.747842     -0.833543
O       5.57340      9.28363      8.38693        -0.273603      0.508725      0.777516
O       9.31742      1.94105      0.20439         0.114984     -0.104575      0.842329
O       9.33767      1.96091     12.61025        -0.262302     -0.513591     -0.674758
O       9.29983     13.04889      0.22817         0.097943      0.017051      0.322211
O       9.39364     13.17982     12.75895        -0.523061     -0.079492     -2.018439
O       9.28574      1.65440      4.34542         0.363712      0.774336      0.144363
O       9.47013     13.10283      4.37301        -0.073000     -0.364742     -0.672564
O       9.50464      1.87887      8.51258        -0.591522     -0.100202      0.085473
O       9.41350     13.06972      8.42790        -0.076887      0.109619      0.550213
O       9.49306      5.64252      0.26532        -0.784346     -0.540937     -0.149755
O       9.39883      5.68505     12.52433        -0.300987      0.001435     -0.316349
O       9.44132      5.73685      4.42789        -0.058846     -0.459414     -0.586614
O       9.35180      5.66497      8.56247        -0.095803     -0.269163     -1.374375
O       9.30525      9.26814      0.20230         0.407244      0.545255      0.971602
O       9.27274      9.20788     12.53192        -0.035737      0.498435      0.564903
O       9.29827      9.33871      4.43755         0.564009      0.129098      0.453098
O       9.31320      9.42566      8.54573         0.383967     -0.089911     -0.775812
O       3.76672      1.95340      2.51860        -0.747254     -0.945024      0.057653
O       3.71313      1.94786     14.68565        -0.385004      0.099698      0.257383
O       3.77101     13.23373      2.39804         0.010416     -0.496374      0.202287
O       3.73510     12.94019     14.78462        -0.840483      0.363754     -0.396931
O       0.01442      1.88145      2.30003        -0.876663     -0.025796      0.179186
O      14.91782      1.63190     14.80320         1.138826     -0.108255     -0.048629
O       0.02143     13.02746      2.38990        -0.896458      0.058629      0.000167
O      14.91218     13.21734     14.68455         1.682948     -0.070698      0.691766
O       3.86136      1.72165      6.41739        -2.675325     -0.092054      0.041865
O       3.80266     13.38578      6.48894        -1.025145     -0.413457     -0.700355
O      14.95000      1.93660      6.44754         0.058175      0.179441      0.307682
O       0.01647     13.10498      6.60909        -0.622077     -0.531128     -0.488363
O       3.68975      1.59267     10.41058        -0.143726      0.362595      0.812174
O       3.68943     13.16809     10.72232         1.132401      0.922340     -0.225688
O       0.04973      1.98628     10.56875        -1.899371      0.510896      0.487696
O      14.93368     12.99642     10.64866        -0.068186     -0.230878     -0.184938
O       3.74144      5.63850      2.39738        -0.516582      0.086686     -0.117919
O       3.61547      5.49968     14.69589         2.000794     -0.306461      0.009253
O      14.93411      5.44058      2.45904         0.960028      0.579598     -0.294719
O      14.94976      5.74168     14.56780        -0.613064     -0.165017      0.229788
O       3.75874      5.70247      6.48766        -1.417897      0.170473      0.362591
O      14.96904      5.36375      6.47815         0.236442      0.202110     -0.109322
O       3.69805      5.81388     10.52957        -0.110519     -0.070144      0.229623
O       0.01750      5.36116     10.65426        -1.603257      0.404808      0.052815
O       3.82622      9.21211      2.49701        -0.795201      0.376931     -0.159395
O       3.69919      9.47415     14.67941         1.280823      0.085470     -0.472068
O       0.12722      9.48894      2.32302        -0.771739     -0.040607      0.221173
O       0.01227      9.14678     14.71429        -0.684447      0.672670     -0.308242
O       3.70553      9.18092      6.33189         0.791060      0.084412      0.179463
O      14.94720      9.61994      6.65736         1.135169     -0.506652     -0.836283
O       3.64568      9.43033     10.64322         0.677249     -0.763810     -0.336803
O      14.88132      9.67994     10.48368         1.317605     -0.224704      0.133085
O       7.47622      1.88300      2.43846         0.467541      0.298779     -0.482277
O       7.35828      1.70621     14.72865         0.618207     -0.007710     -0.145222
O       7.55011     12.93132      2.46985        -0.975651     -0.046846     -0.077315
O       7.41887     13.26949     14.71201         0.343209      0.062395      0.052037
O       7.56545      2.03065      6.51347        -0.262517      0.084026      0.086045
O       7.55562     12.95967      6.46270        -0.119392     -0.393407     -0.446687
O       7.49044      2.05862     10.55477        -0.582311     -0.250814      0.050091
O       7.47504     12.98707     10.56269        -0.076471      0.577075     -0.215543
O       7.43293      5.59755      2.33700         0.554027     -0.592992     -0.008406
O       7.45908      5.64963     14.71164        -0.628907      0.668555     -0.169814
O       7.50547      5.43285      6.51269        -0.038938     -0.214599     -0.236411
O       7.43976      5.44698     10.52187        -0.875987      0.007195      0.524921
O       7.52961      9.50755      2.35810         0.550400     -0.019311      0.118892
O       7.48457      9.09099     14.62404        -0.390675      0.649851     -0.186706
O       7.54881      9.51303      6.51239        -0.564318      0.313335      0.039606
O       7.37901      9.49315     10.50709         0.533335      0.443739      0.315536
O      11.21690      1.72233      2.46816        -1.224978      0.291911     -0.535549
O      11.16748      2.04613     14.63822         0.752172      0.018977     -0.080668
O      11.26230     13.24130      2.29835        -0.209893     -0.241478      0.315094
O      11.24358     12.89741     14.72284        -0.815811     -0.359936      0.590582
O      11.22107      1.64490      6.39765         0.281893     -0.049244      0.112764
O      11.27973     13.23224      6.45996         0.077046      0.102799      0.144948
O      11.21588      1.75748     10.67579         0.375738      0.634887      0.214838
O      11.20964     13.26774     10.68863         0.096567     -0.440889     -0.574524
O      11.22603      5.70501      2.29511         1.049237      0.350373      0.329176
O      11.17239      5.38920     14.62871         1.446570     -0.158934     -0.037528
O      11.29528      5.86827      6.49591        -1.371145     -0.379341     -0.044547
O      11.24934      5.91017     10.40904        -0.563947      0.029896      0.856597
O      11.33308      9.22511      2.37503        -0.602365     -0.072528      0.047587
O      11.24069      9.39823     14.61354         0.329009      0.536173      0.465177
O      11.29325      9.05703      6.44557        -0.783079      0.570590     -0.244607
O      11.15647      9.19900     10.65448         0.110472     -0.153851     -0.310720
O       1.95660      3.77124      2.53128        -0.411065     -0.488621     -0.684111
O       1.70513      3.65919     14.72896        -0.340903      0.888161     -0.007015
O       1.93254     14.97243      2.39703        -0.574895      0.701173      0.406570
O       2.00025     14.96437     14.79281        -0.207879     -0.172346     -0.156252
O      13.03038      3.71189      2.22067        -0.152407      0.824613      0.196278
O      13.32438      3.66763     14.66210        -0.426025      1.572564      0.029531
O      13.14131      0.03373      2.35971         0.765764     -1.996152      0.532882
O      12.93037     14.90875     14.65251        -0.172793      1.542341      0.294070
O       1.93298      3.74395      6.51079         0.595636     -0.566970      0.218623
O       1.68307      0.04407      6.61620         0.730070     -1.068572     -0.762997
O      12.97592      3.66894      6.56099        -0.360611      0.854316      0.026091
O      13.15372      0.02521      6.29217         0.710477     -1.687744      0.314074
O       2.04576      3.76032     10.62213        -0.038909     -1.293485     -0.464345
O       1.64736     14.96779     10.51363         0.054826      0.932989      0.571641
O      12.94695      3.80268     10.45825         0.062607     -1.546888      0.623602
O      13.18475     15.00076     10.58982         0.423115     -0.437392      0.488332
O       1.84814      7.45971      2.32324        -0.464297      0.856446      0.215387
O       1.91327      7.49736     14.69833         0.386879     -0.267486     -0.088451
O      13.32461      7.50198      2.30094        -0.011081     -0.483606      0.601390
O      12.92314      7.49590     14.64916         0.178192     -1.008398     -0.104210
O       1.61213      7.46555      6.58233         0.239963      0.094799     -0.503866
O      13.34733      7.45054      6.57255         0.363368      0.396524     -0.647723
O       1.66585      7.53567     10.63561        -0.163866     -0.092695     -0.207127
O      13.32532      7.51560     10.69367        -0.201511     -0.027526     -0.461714
O       2.01535     11.22606      2.44384         0.078120     -0.778408      0.077456
O       1.73864     11.23487     14.78303        -0.403548      0.356819     -0.133780
O      13.03413     11.16699      2.35117         0.183878      1.962912      0.017921
O      13.21700     11.17268     14.82456         0.313429      0.108464      0.055542
O       2.08414     11.27256      6.58175        -0.504838     -0.365733     -0.464290
O      12.93731     11.18303      6.47154        -0.145647      1.134299      0.037847
O       1.97350     11.27767     10.54336        -0.594445      0.124200      0.148278
O      12.82832     11.22283     10.59926         0.306018      1.215058     -0.468610
O       5.63237      3.71404      2.39605         0.044546      0.475623     -0.078013
O       5.70089      3.76298     14.72712        -0.381153     -0.306533     -0.244650
O       5.66932     14.92982      2.50541         0.268550      0.739897     -0.384155
O       5.44420      0.00076     14.52551        -0.424536     -0.339822      0.485717
O       5.47066      3.78369      6.54471         0.327259     -1.492462      0.195875
O       5.90721      0.02150      6.46053        -0.110284     -0.278897     -0.252481
O       5.30849      3.75400     10.59927         0.408452     -0.092935     -0.353363
O       5.71234      0.01604     10.53748         0.286199     -0.381425      0.572835
O       5.66606      7.43197      2.47508         0.230356      1.026755     -0.389250
O       5.40970      7.49497     14.68524         0.037922      0.159025     -0.221177
O       5.73892      7.45508      6.32002         0.134507      0.781956      0.756003
O       5.59833      7.56995     10.63367         0.395614     -0.516083     -0.229155
O       5.56079     11.20246      2.41553        -0.341638      0.251054      0.150022
O       5.76602     11.21472     14.70045        -0.139565     -0.031224      0.014358
O       5.32556     11.26788      6.37805         0.814151     -0.637466      0.200199
O       5.45160     11.32156     10.52582         0.163468      0.204749     -0.039206
O       9.44068      3.79256      2.41274        -0.307543     -2.126800      0.130511
O       9.10397      3.69901     14.51675         0.074124      0.663124      0.653061
O       9.17956     14.93810      2.24378         0.466019      0.335370     -0.112715
O       9.54131     14.99643     14.64972        -0.369448      0.168853      0.491576
O       9.73791      3.71237      6.38605        -1.167294      0.312177     -0.487721
O       9.21068     14.91855      6.43919         0.116543      0.596923      0.217435
O       9.46198      3.84326     10.62152         0.489850     -1.404279      0.124791
O       9.36157      0.00347     10.71446        -1.074475     -0.100095     -0.562736
O       9.19961      7.49417      2.38191         0.526167      0.694483     -0.224120
O       9.46678      7.46380     14.71043         0.057966     -0.663851     -0.181698
O       9.20442      7.43386      6.59243        -0.030837      1.123027     -0.019875
O       8.99074      7.52341     10.57260         0.400925     -0.056117     -0.254546
O       9.57810     11.20375      2.32456        -0.052854      0.006443      0.423072
O       9.17291     11.20645     14.61904        -0.131553     -1.094180      0.211626
O       9.60767     11.19034      6.55656        -0.259075      0.048264     -0.429119
O       9.42145     11.24961     10.70993         0.092052      0.573400     -0.476820
