  # total energy = -7884.28561842 
CRSYTAL
PRIMVEC
    15.3600000000000000    0.0000000000000000    0.0000000000000000
     0.0000000000000000   15.3600000000000000    0.0000000000000000
     0.0000000000000000    0.0000000000000000    17.440000000000000
PRESSURE
2.60543 2.23398 0.731166 0.294345 0.394555 -0.024257
PRIMCOORD
320 1
Pb       3.82649      3.74544      4.34296         0.043851      0.248788     -0.131054
Pb       3.78095      3.74510     17.40793         0.235874      0.153199     -0.192623
Pb       3.77092     15.28812      4.37227         0.285474     -0.151094     -0.268280
Pb       3.68797     15.28486     17.30360         0.735965      0.075209      0.593920
Pb       0.06165      3.72786      4.28679        -0.218383      0.355152      0.173696
Pb       0.08967      3.85340     17.42559        -0.219691     -0.254103     -0.095260
Pb       0.04435     15.32001      4.26951        -0.070808      0.065937      0.435523
Pb      15.26777     15.26662     17.39898         0.375024      0.436947     -0.114433
Pb       3.73441      3.80712      8.76016         0.152351      0.174387     -0.493553
Pb       3.85254      0.03355      8.62573        -0.318702     -0.231854      0.058902
Pb      15.28008      3.95880      8.70796        -0.051356     -0.539819     -0.056217
Pb      15.20038      0.03609      8.74017         0.418811      0.217358      0.251500
Pb       3.77788      3.77135     12.96221         0.717268      0.556543      0.503461
Pb       3.72883      0.02557     12.90634         0.330071     -0.144997      0.244459
Pb       0.04062      3.76629     13.08223        -0.181411     -0.435396      0.068212
Pb      15.32681     15.27882     13.03375         0.170672      0.431654      0.089259
Pb       3.82151      7.64967      4.32914         0.195569     -0.089782     -0.057009
Pb       3.77166      7.53887     17.33544         0.092486      0.456092      0.424663
Pb       0.05513      7.80527      4.29674         0.202414     -0.630261      0.222566
Pb      15.19838      7.59324     17.37821         0.711228      0.011639      0.484323
Pb       3.80833      7.73248      8.69760         0.274921     -0.203001     -0.379580
Pb      15.35000      7.67145      8.68493        -0.191118      0.135089      0.033397
Pb       3.80141      7.57078     12.95376         0.050079      0.017301      0.257031
Pb      15.32990      7.56869     13.10898         0.221427      0.605455     -0.228156
Pb       3.82352     11.54516      4.31821         0.095408     -0.256464      0.124650
Pb       3.81464     11.55754     17.34746         0.310200     -0.433909      0.140210
Pb      15.26121     11.54471      4.33355         0.678411     -0.095069     -0.035585
Pb      15.25097     11.54935     17.30591         0.212310     -0.246589      0.325402
Pb       3.85546     11.50812      8.69782        -0.237322      0.332629     -0.152333
Pb      15.26023     11.46233      8.72758         0.500964      0.151046      0.680611
Pb       3.83211     11.43090     12.97915        -0.181995      0.272327      0.087267
Pb       0.12000     11.52892     13.02881        -0.232798     -0.413610      0.324873
Pb       7.71179      3.68308      4.30780         0.043751      0.571999      0.786590
Pb       7.55422      3.79677      0.02617         0.159671     -0.089823     -0.371091
Pb       7.74434     15.26864      4.37498        -0.395486      0.196340      0.615055
Pb       7.61186     15.35331     17.39791        -0.101957     -0.292698      0.282260
Pb       7.64810      3.87152      8.61893         0.410952     -0.235759      0.315626
Pb       7.63795     15.35054      8.67149         0.231935      0.045223     -0.331276
Pb       7.79805      3.93723     13.02398        -0.285495      0.185637      0.911469
Pb       7.56675      0.15492     12.95388         0.102778     -0.872254      1.055999
Pb       7.73917      7.58720      4.32590        -0.254971      0.108307     -0.085154
Pb       7.52879      7.73456     17.39706         0.235567     -0.192832      0.347225
Pb       7.69676      7.67232      8.67591         0.050196      0.102246     -0.063106
Pb       7.63568      7.69687     12.97786         0.468879     -0.094850      0.415824
Pb       7.69357     11.47287      4.35076        -0.347324     -0.517546      0.065609
Pb       7.61952     11.49884     17.40978        -0.374387      0.376227     -0.351364
Pb       7.63089     11.56914      8.64036         0.001110      0.013243      0.298803
Pb       7.67137     11.48693     12.93904         0.207063      0.105819      0.557902
Pb      11.42011      3.76230      4.23527         0.454408      0.815330      0.726955
Pb      11.62906      3.80547      0.03284        -0.373335      0.377778      0.211300
Pb      11.52797     15.21456      4.34208         0.092639      0.358515      0.210790
Pb      11.36080     15.27026      0.07008         0.134043      0.188639     -0.091954
Pb      11.36963      3.92193      8.64596         0.488377     -0.525320      0.662853
Pb      11.47552      0.02257      8.66822         0.009850      0.034176      0.497478
Pb      11.59659      3.73433     13.14022        -0.067370      0.169238      0.072958
Pb      11.56598     15.34527     12.97250        -0.046756      0.307118      0.660482
Pb      11.45715      7.65088      4.22795         0.093270     -0.164772      0.440085
Pb      11.51263      7.65431      0.00508         0.074719      0.022115     -0.084070
Pb      11.52229      7.70040      8.65915         0.310467      0.114611      0.242180
Pb      11.45549      7.60317     13.10451        -0.117403      0.067872      0.121178
Pb      11.54829     11.47715      4.24272         0.021639     -0.120619      0.243355
Pb      11.36887     11.45496     17.39609         0.331961      0.015632     -0.249163
Pb      11.58911     11.51355      8.60183        -0.287086      0.017258      0.897747
Pb      11.56553     11.47912     13.02193        -0.392022     -0.055084      0.662880
Ti       1.96371      1.84683      2.33581         0.210758      0.872131     -2.109354
Ti       1.92349      1.89145     15.40926        -0.255270      0.041123      0.372733
Ti       1.85529     13.34441      2.29946         1.173353      0.357976     -0.162454
Ti       1.83926     13.40023     15.38411         0.329739      0.329940     -0.429095
Ti      13.51901      1.86552      2.39874        -0.501630      1.158185     -0.272646
Ti      13.42132      1.88069     15.58065         0.671479      0.326795     -2.227748
Ti      13.42687     13.45948      2.32135        -0.281272     -0.449631     -0.030920
Ti      13.33906     13.42473     15.41118         0.904682     -0.373806     -0.342128
Ti       1.88630      1.90364      6.69699         0.099390      0.102984      0.307517
Ti       1.84206     13.41999      6.74629         1.447948      0.000176      0.805126
Ti      13.46345      2.01348      6.69257        -0.127693     -0.854970      0.806112
Ti      13.48488     13.48724      6.75904        -0.897384     -0.185312     -1.145815
Ti       1.92504      1.96992     10.98860        -0.690460     -0.711962     -0.570634
Ti       1.91882     13.44849     11.01336         0.380238     -0.663176     -1.855737
Ti      13.38828      1.87743     11.09833         1.253371      0.450486     -0.350831
Ti      13.45131     13.38171     11.17292         0.552400      0.472607     -1.116142
Ti       1.88283      5.74466      2.36510         0.628203     -0.202941     -0.630890
Ti       1.85289      5.74326     15.38357         0.440319     -0.324458     -0.190213
Ti      13.45554      5.71067      2.41297        -0.557837     -0.300005     -1.329187
Ti      13.38123      5.76446     15.38368         0.188063     -0.121072      0.518233
Ti       1.89056      5.73499      6.68381         0.642043      0.103092     -0.644106
Ti      13.43508      5.78354      6.63044        -0.011396      0.146042      0.120565
Ti       1.85804      5.75839     11.01804         1.227070      0.491854      0.660092
Ti      13.46664      5.70108     11.17553        -0.151985      0.226248      0.156601
Ti       1.94304      9.59168      2.25257         1.251602     -0.060541     -0.113066
Ti       1.81086      9.59450     15.47561         0.977984     -0.315933     -1.263597
Ti      13.51737      9.55460      2.32225        -0.867103      0.474646     -0.964943
Ti      13.40504      9.55473     15.37593        -0.112480      0.512097     -0.125592
Ti       1.93309      9.64268      6.75289         0.785109      0.012166     -1.226045
Ti      13.52185      9.62818      6.65499        -1.218625     -0.765067      0.701821
Ti       1.95331      9.60294     11.05923        -0.898931      0.043757      0.292039
Ti      13.45194      9.54027     11.18600         1.194684      0.124818     -0.619273
Ti       5.85786      1.80595      2.49893        -1.633127     -0.200370     -1.392968
Ti       5.76959      1.84624     15.42503         0.436336      0.506314     -1.371874
Ti       5.78953     13.38212      2.43392        -1.232103     -0.039176     -1.752605
Ti       5.71027     13.39252     15.30139         0.755578      0.317231      0.972969
Ti       5.76179      2.01901      6.70311         0.060180     -0.636209     -0.148452
Ti       5.72310     13.50422      6.69124        -0.333464     -0.682518     -0.427967
Ti       5.83059      1.96474     10.98886        -1.409888      0.090792     -0.620140
Ti       5.77878     13.43741     11.04348        -0.299883     -0.059956      0.210542
Ti       5.71435      5.65564      2.37137         0.005699      0.807332     -1.061565
Ti       5.70846      5.73107     15.41822         0.425327     -0.428543     -0.138977
Ti       5.74108      5.74212      6.70788        -0.016097      0.865318     -0.561794
Ti       5.85315      5.74139     10.99395        -1.474790      0.114543      1.586783
Ti       5.76288      9.48159      2.39942        -0.184403      1.494450     -0.584446
Ti       5.67622      9.56829     15.29762        -0.120262      0.498138      0.980395
Ti       5.82922      9.59277      6.69654        -0.522749     -0.277757     -0.089973
Ti       5.78960      9.61409     11.02943        -0.039767      0.169285      0.081204
Ti       9.70146      1.87499      2.43158        -0.882279      0.153516     -0.664672
Ti       9.66511      1.91626     15.52258        -1.096144      0.861202      0.165864
Ti       9.54272     13.41169      2.41263         0.209872      0.267233     -0.878626
Ti       9.58468     13.52679     15.32794        -0.817372     -1.126574      1.545828
Ti       9.66043      1.86046      6.71133        -1.463909      1.032035     -0.601004
Ti       9.62081     13.42155      6.69677        -0.358043      0.344738      0.434513
Ti       9.56701      1.92652     11.13248         1.467175      0.703797     -0.930389
Ti       9.61804     13.48565     11.11201        -0.271031     -0.293076     -1.396441
Ti       9.53389      5.72447      2.28018         0.811393      0.142838      0.630967
Ti       9.57511      5.78806     15.60168        -0.529659     -0.501466     -1.310923
Ti       9.64624      5.76756      6.70062        -0.826145     -0.394390     -0.945157
Ti       9.72257      5.76522     11.04623        -0.248059     -0.111495     -0.292675
Ti       9.62831      9.58319      2.32493        -0.894318     -0.382399      1.414538
Ti       9.51579      9.60215     15.44737         0.790890      0.230641     -1.671240
Ti       9.65423      9.62060      6.70980        -0.030233     -0.009828     -1.249182
Ti       9.69360      9.62312     11.05843        -0.650791     -0.604454      0.834721
O       1.85521      2.00370      0.46564         0.472504     -0.408414      1.656988
O       1.97724      1.92024     13.66003        -0.058918     -0.122616     -1.177240
O       1.85966     13.40315      0.54299         0.043314      0.117124     -0.186898
O       1.77601     13.43306     13.62019         0.427149      0.082740     -0.258185
O      13.48875      1.91918      0.65471        -0.070021     -0.083992     -1.267044
O      13.48880      1.91207     13.74660        -0.530486     -0.047362      0.748261
O      13.47051     13.56029      0.58231        -0.180622     -0.336981     -0.711175
O      13.47032     13.44398     13.66280        -0.234703      0.300631     -0.487828
O       1.90573      1.88522      4.92712        -0.281962      0.223412     -0.899829
O       1.88213     13.39922      4.99861        -0.124012      0.053122     -0.813425
O      13.59552      1.99565      4.98931        -0.298419     -0.470461     -1.636272
O      13.36322     13.51614      4.97017         0.250319     -0.285332      0.099401
O       2.00854      2.01078      9.21549        -0.233155     -0.141687      0.224443
O       1.96349     13.31301      9.20547        -0.263159      0.443977      0.436923
O      13.43180      1.93965      9.35042         0.164657     -0.264153     -0.993175
O      13.44331     13.38720      9.39238         0.115057     -0.072171     -0.730617
O       1.97350      5.83870      0.57777        -0.183768     -0.747971     -0.049749
O       1.91707      5.74079     13.62205        -0.245206      0.054244      0.032002
O      13.53666      5.75016      0.59822        -0.302344      0.053991      0.721930
O      13.38446      5.78480     13.62967         0.057260      0.072713     -0.926949
O       1.99873      5.73482      4.88780        -0.401521      0.004533      0.770887
O      13.31532      5.81513      4.91001         0.310219      0.009995     -0.855497
O       1.92159      5.73441      9.26029        -0.407277     -0.001460     -0.373534
O      13.45147      5.68872      9.44774         0.382775      0.039737     -1.351057
O       2.05280      9.58457      0.50389        -0.490389      0.089993     -0.090360
O       1.84058      9.69978     13.67435         0.174548     -0.471603      0.425562
O      13.56513      9.58327      0.55707        -0.320809     -0.076876      0.620705
O      13.43705      9.57137     13.60934        -0.140480     -0.290724     -0.412828
O       1.82344      9.84442      4.97111        -0.040313     -1.089091      0.370275
O      13.46201      9.56871      4.91241         0.306225      0.209190     -0.735622
O       1.97447      9.67271      9.32447        -0.108909     -0.367193     -1.479400
O      13.49641      9.69494      9.40597        -0.189684     -0.088057     -0.393733
O       5.90971      1.87363      0.70860        -0.196258      0.040208      0.104045
O       5.79079      1.84097     13.61596        -0.106473      0.028957      0.707289
O       5.79713     13.41721      0.62202         0.033615     -0.382160      0.459897
O       5.77986     13.41285     13.59065        -0.131082      0.076609     -1.122359
O       5.77239      2.01402      4.93915        -0.289747     -0.091113     -0.765045
O       5.64020     13.48852      4.93653         0.394953      0.136863     -0.043887
O       5.75360      2.02483      9.19767         0.077800     -0.355695      0.786443
O       5.74409     13.39452      9.30257         0.404272      0.190786     -1.403424
O       5.66234      5.68092      0.57265        -0.019389     -0.097919      0.288677
O       5.68770      5.71953     13.68306         0.420151      0.220255     -0.962486
O       5.72235      5.79740      4.91617         0.213447     -0.066065      0.329584
O       5.79164      5.72135      9.28942         0.196212      0.119138     -0.864732
O       5.81187      9.59456      0.62680        -0.022973      0.356035     -0.270156
O       5.73032      9.62884     13.54542        -0.019835     -0.011673     -0.138704
O       5.88848      9.46976      4.95987        -0.130397     -0.002093     -0.634986
O       5.79192      9.63738      9.27362         0.034541     -0.005869     -0.200158
O       9.60486      1.81500      0.69250         0.295207      0.040570     -0.443887
O       9.70793      1.99566     13.78595        -0.130852     -0.069567     -1.500504
O       9.58159     13.57228      0.66377         0.162490     -0.523942     -0.255464
O       9.58959     13.50181     13.63859         0.196627      0.018389     -2.156280
O       9.62449      2.01076      4.96132        -0.000805     -0.360378     -1.154757
O       9.53098     13.56523      4.92502         0.631546     -0.695267     -0.302183
O       9.69826      1.89112      9.40355        -0.555687     -0.156560     -0.921473
O       9.50637     13.57835      9.30663         0.397163      0.042673      0.831974
O       9.68237      5.87546      0.57265        -0.230505     -0.220269     -1.716412
O       9.52910      5.78931     13.78703         0.354413     -0.274829      0.409667
O       9.51454      5.71497      4.90959         0.478116      0.111621      0.799209
O       9.68087      5.79470      9.28149         0.066187     -0.052530     -0.446484
O       9.64337      9.63549      0.62146        -0.129502     -0.065934     -2.059557
O       9.59882      9.56708     13.65180        -0.025839      0.008776      0.211353
O       9.73188      9.70678      4.91113        -0.532085     -0.191684      0.607935
O       9.73743      9.48544      9.36097        -0.211733      0.106164     -1.826213
O       3.84628      1.89951      2.69545        -0.504103      0.366706      0.414588
O       3.86474      1.80885     15.79584         0.329196      0.503492      0.327125
O       3.83334     13.32400      2.70631        -1.135238      0.098577      0.283557
O       3.75534     13.51128     15.68298         0.798624     -0.240879      0.326590
O       0.03120      1.88031      2.72581         0.287388     -0.157476      0.440814
O       0.03050      1.99032     15.75100        -1.157452     -0.265440      0.604538
O      15.29199     13.38705      2.68626         0.791635      0.415733      0.456972
O      15.34034     13.54198     15.75055        -0.517775     -0.369720      0.584050
O       3.77995      2.03789      6.98090         0.632911      0.116031      0.535707
O       3.85412     13.41830      7.08152        -0.077288      0.113818      0.291710
O      15.33445      1.85544      7.09858        -0.027001      0.098033      0.486984
O      15.35590     13.37804      7.04729        -0.300089      0.257278      0.385990
O       3.84164      1.89395     11.42081         0.297794     -0.169541     -0.122756
O       3.86504     13.45552     11.32254        -0.415161      0.103088      0.703253
O       0.05016      1.90941     11.36263         0.188337      0.221032      0.439376
O       0.02200     13.44401     11.44836        -0.173934     -0.237183      0.140942
O       3.82326      5.72825      2.77695        -0.039374     -0.609641      0.124372
O       3.83151      5.71454     15.69571        -0.668729      0.261170      0.714035
O      15.35408      5.78027      2.68861        -0.181091      0.265945      0.622053
O      15.23817      5.79197     15.71688         1.857525     -0.293596      0.362827
O       3.87816      5.81080      7.07979        -0.580261     -0.509141      0.143470
O      15.33918      5.85236      7.01013         0.091255     -0.438576      0.392780
O       3.79675      5.76725     11.46251         0.622750     -0.162612     -0.250726
O       0.01433      5.69689     11.52757         0.319619      0.084250      0.051728
O       3.85531      9.65729      2.74463        -1.005431      0.169375      0.310256
O       3.78106      9.67801     15.76127         0.630760     -0.566247     -0.078237
O       0.04595      9.58249      2.71682        -0.534793     -0.384486      0.126286
O      15.32203      9.66900     15.77680         0.470210     -0.742236      0.412548
O       3.88680      9.55577      7.05020        -0.371813      0.052902      0.300337
O       0.00703      9.61795      7.09362        -0.180751     -0.144110      0.279565
O       3.84005      9.59958     11.40372         0.408933      0.218156      0.322655
O       0.03328      9.57516     11.41032        -0.033807      0.358769      0.467808
O       7.64942      1.73528      2.88006         1.223519      0.464433     -0.023287
O       7.71080      1.91244     15.87046        -0.378986      0.187637      0.070901
O       7.65533     13.49716      2.76758         0.744246      0.033086      0.432824
O       7.72555     13.36609     15.73125        -0.790090     -0.016641      0.256684
O       7.67922      1.91785      6.99369        -0.188584      0.066714      0.710781
O       7.69723     13.47682      7.10422        -0.456421      0.253145      0.048134
O       7.69415      2.04867     11.50444        -0.261244     -0.263332     -0.362156
O       7.74829     13.36707     11.46425        -0.371763      0.237837     -0.026384
O       7.68055      5.77738      2.54914        -1.003409      0.404785      0.736450
O       7.63706      5.76039     15.85298         0.392087     -0.283225      0.425662
O       7.77004      5.72303      7.16129        -0.605458      0.501101     -0.152321
O       7.69379      5.73879     11.50100        -0.017039     -0.266236     -0.422491
O       7.63943      9.45861      2.76071         1.268102      0.368394      0.278048
O       7.66353      9.66369     15.74751        -0.642015      0.201134      0.324387
O       7.73416      9.59151      7.12765         0.247925     -0.114057      0.127215
O       7.71414      9.59708     11.44500        -0.153168      0.238224     -0.134047
O      11.57208      1.93979      2.84500        -0.300128     -0.505188     -0.362237
O      11.50922      1.97525     15.93327         0.994929     -0.721019      0.354909
O      11.52120     13.34894      2.68553        -0.194840      0.626557      0.463729
O      11.50383     13.36968     15.71341         0.060384      0.398960      0.670183
O      11.46521      1.98735      7.03038         1.701859     -0.541137      0.463033
O      11.49407     13.49233      7.19518         0.003958     -0.386434     -0.452770
O      11.56524      1.86341     11.38036        -1.060311     -0.131681      1.060398
O      11.56519     13.49668     11.48042        -0.963881      0.149302      0.188664
O      11.45987      5.65264      2.61655         0.773744     -0.004006      0.730573
O      11.56246      5.88479     15.81237        -1.278301      0.141276      0.503914
O      11.59520      5.78722      7.16826        -1.033127     -0.232172     -0.275267
O      11.61042      5.76799     11.44353        -1.097020      0.345796      0.553865
O      11.49209      9.74152      2.68179         0.741602     -0.696083      0.088856
O      11.56244      9.47822     15.77937        -0.916179      0.636734      0.540608
O      11.56577      9.57081      7.01272        -0.092452      0.485953      0.563146
O      11.56063      9.53220     11.44293        -0.273510     -0.083314      0.588960
O       1.81082      3.80315      2.67229         0.534013     -0.097822      0.232211
O       1.87446      3.82011     15.76127         0.423614      0.630457      0.422299
O       1.90597     15.33402      2.64361        -0.063558     -0.508290      0.399694
O       1.92013      0.04245     15.79077        -0.491494     -1.007578      0.146564
O      13.46196      3.77941      2.73638         0.209236      0.654063      0.374547
O      13.32457      3.91486     15.79823         0.308446     -1.101473      0.315082
O      13.47430      0.02943      2.75688        -0.402645     -1.354451      0.365855
O      13.40113     15.34335     15.81178        -0.099206      0.157717      0.394640
O       1.82196      3.83269      7.15047         0.111096      0.806315     -0.265274
O       1.99337      0.04283      7.04766        -0.381035     -1.049737      0.344064
O      13.45272      3.82532      7.02055         0.219744      1.260157      0.469185
O      13.44513     15.30382      7.10713        -0.169506      1.073757      0.445184
O       1.95368      3.86224     11.42712        -0.156366     -0.533092     -0.075620
O       1.86983     15.30361     11.27562         0.428160      1.287774      0.614607
O      13.44672      3.76805     11.56231         0.162358      0.377665      0.229499
O      13.52930     15.34211     11.44389        -0.303709     -0.035510      0.467608
O       1.99235      7.63276      2.68634        -0.441622      1.139203      0.530137
O       1.91920      7.58688     15.83976        -0.357242      1.000490     -0.316081
O      13.29232      7.63703      2.68199         0.609599      0.880134      0.267198
O      13.50747      7.71761     15.87548        -0.342873     -0.571574     -0.312801
O       1.94971      7.65579      7.11453        -0.356434      0.305860      0.040624
O      13.45336      7.69340      7.12915         0.186263      0.392916      0.002877
O       1.94722      7.67728     11.42466        -0.379605     -0.359332      0.080084
O      13.55062      7.67793     11.46171        -0.286760     -0.504613      0.344514
O       1.87031     11.49614      2.67656        -0.259166     -0.033584      0.121976
O       1.84463     11.52250     15.75643         0.089018      0.365782      0.448247
O      13.46661     11.49440      2.67191         0.008700      0.069236      0.330472
O      13.51840     11.45938     15.76250        -0.765156      1.202594      0.265900
O       1.93791     11.47478      7.11427         0.015801      0.767875      0.376367
O      13.39998     11.54520      7.12532         0.303737     -0.435865     -0.283276
O       1.89760     11.53818     11.37356         0.298442     -0.268222      0.679877
O      13.41033     11.57331     11.65558         0.229391     -1.164488     -0.590489
O       5.87173      3.81511      2.77874        -0.523243     -0.481535      0.007083
O       5.74113      3.82371     15.77167         0.087003     -0.719545      0.533514
O       5.58552     15.24780      2.81153         0.728257      1.160347      0.359119
O       5.89143     15.31226     15.76742        -0.670713     -0.054900      0.050246
O       5.79300      3.86891      7.16081        -0.110712      0.490161     -0.200938
O       5.67798      0.11467      7.05131         0.236897     -1.149948      0.334905
O       5.70911      3.80805     11.41034         0.223241      0.466242     -0.011641
O       5.80593     15.33006     11.32616         0.363350      1.334972      0.303102
O       5.58917      7.68637      2.61857         0.469842     -1.701027      0.746026
O       5.85291      7.73226     15.82464        -0.903586     -0.327388     -0.479535
O       5.80053      7.65964      7.17522         0.281349     -0.243407      0.079810
O       5.72803      7.73375     11.39227         0.313212     -1.058416      0.015122
O       5.84753     11.51010      2.91053        -0.026889     -0.216545     -0.161270
O       5.66122     11.51940     15.74955         0.402033     -0.054308      0.160319
O       5.79931     11.51228      6.91345         0.233389      0.420398      0.701057
O       5.70423     11.57549     11.40474         0.470398     -1.241558      0.385291
O       9.49216      3.80613      2.70950         0.181635     -0.497702      0.073643
O       9.69353      3.80088     15.98421        -0.368257      1.103575      0.040342
O       9.61238      0.02046      2.76656         0.441784     -0.985309      0.670066
O       9.61186      0.01332     15.89324         0.354893     -0.345693     -0.090145
O       9.54963      3.79941      7.14778         0.538379      0.909960     -0.004270
O       9.58194      0.01550      7.02223         0.148950     -0.811659      0.584183
O       9.79535      3.88679     11.39427        -0.820554     -0.738738      0.782569
O       9.54512      0.07117     11.51611         0.223402     -0.669921      0.086146
O       9.63201      7.63367      2.75826         0.076191      0.678934     -0.027968
O       9.51767      7.71984     15.80310         0.253236     -0.207711      0.688471
O       9.64425      7.69786      6.99452        -0.028336     -0.212371      0.340751
O       9.54762      7.57884     11.41850         0.414931      1.234201      0.642140
O       9.50492     11.51258      2.65536        -0.067261      0.100391      0.466949
O       9.66729     11.54127     15.80759        -0.059608     -0.446820      0.385925
O       9.53195     11.54010      7.19262         0.663005     -0.035269     -0.468783
O       9.72546     11.50525     11.33092        -0.199029      0.494807      0.459500
