  # total energy = -7880.72899229 
CRSYTAL
PRIMVEC
    15.2000000000000000    0.0000000000000000    0.0000000000000000
     0.0000000000000000   15.2000000000000000    0.0000000000000000
     0.0000000000000000    0.0000000000000000    17.000000000000000
PRESSURE
7.67538 7.35947 0.325784 0.123427 0.038656 0.010662
PRIMCOORD
320 1
Pb       3.80357      3.80678      4.22708         0.258943      0.097212     -0.375884
Pb       3.64295      3.76166      0.06826         0.410145     -0.103926     -0.117538
Pb       3.80428     15.11777      4.31361        -0.031761      0.136887     -0.437425
Pb       3.82254     15.18784      0.03346        -0.311791      0.006628     -0.216603
Pb      15.10319      3.84682      4.25437         0.317507     -0.453245     -0.243606
Pb      15.12013      3.71013     16.98786         0.398961      0.492079     -0.103056
Pb       0.00098     15.15730      4.14017        -0.083964      0.264462      0.212713
Pb       0.01429      0.03092     16.92980        -0.250509     -0.213178     -0.032577
Pb       3.68852      3.66731      8.54918         0.055764      0.589767     -0.384418
Pb       3.72571      0.05276      8.36244         0.629511     -0.015863      0.127915
Pb      15.05352      3.82635      8.38987         0.087483     -0.041202      0.065173
Pb       0.13111      0.00245      8.62111        -0.624913      0.018486     -0.839698
Pb       3.76500      3.82344     12.83707        -0.162427     -0.302842     -0.284120
Pb       3.80449     15.08163     12.62351        -0.037370      0.752385      0.563250
Pb       0.04527      3.56303     12.80698         0.190625      0.312117     -0.218395
Pb      15.16545     15.09867     12.62544         0.463272      0.769330      0.593633
Pb       3.68878      7.61262      4.21253         0.678338     -0.255589      0.216869
Pb       3.86428      7.53723      0.11449        -0.332731      0.281277     -0.840281
Pb       0.01368      7.50421      4.17821        -0.464290      0.188488      0.153332
Pb       0.18580      7.65756      0.05626        -0.865616     -0.506067      0.480775
Pb       3.70058      7.54578      8.53189        -0.132238     -0.046751     -0.339226
Pb      15.19609      7.61214      8.52666        -0.237062     -0.481674     -0.063080
Pb       3.84226      7.68783     12.77780        -0.457664     -0.015787     -0.003463
Pb      15.15817      7.64659     12.72394         0.123457     -0.991546      0.690744
Pb       3.80013     11.40870      4.22559         0.010915     -0.088796     -0.248000
Pb       3.72060     11.37872     16.91636         0.478959     -0.366567      0.320070
Pb      15.14530     11.34819      4.24053         0.193311      0.321259     -0.412246
Pb       0.02284     11.42207      0.01729        -0.274202      0.000697      0.130275
Pb       3.81038     11.31727      8.38712        -0.105040      0.095026      0.291770
Pb      15.11372     11.33421      8.49404        -0.100226      0.386945     -0.059007
Pb       3.83676     11.36245     12.71578         0.261085     -0.125175     -0.082140
Pb       0.01223     11.48369     12.54192        -0.020984     -0.537380      1.147536
Pb       7.62404      3.77860      4.19397        -0.048624      0.121199     -0.366458
Pb       7.57677      3.77417     16.92939         0.310143      0.028340      0.632583
Pb       7.60609      0.11296      4.25130        -0.043008     -0.222239      0.108130
Pb       7.52588      0.02947      0.00585         0.299577     -0.254929     -0.310544
Pb       7.54712      3.88619      8.43650        -0.077757      0.030637      0.054871
Pb       7.53701     15.17322      8.41997         0.020136      0.042715     -0.198353
Pb       7.52900      3.68876     12.66784         0.062980      0.376105      0.433762
Pb       7.68311      0.09346     12.65953        -0.728736     -0.465811      0.703174
Pb       7.49121      7.66587      4.42114        -0.080101     -0.469850     -0.453654
Pb       7.51404      7.46833     16.92387         0.483030      0.207983      0.588696
Pb       7.63720      7.54190      8.56883        -0.196488      0.061373     -0.436078
Pb       7.75040      7.52174     12.83786        -0.432784      0.167972     -0.390976
Pb       7.67033     11.42912      4.13680        -0.494180     -0.314993      0.575423
Pb       7.66876     11.31701     16.97353        -0.420346      0.284412      0.133817
Pb       7.55401     11.30142      8.34839        -0.092255      0.122687      0.300106
Pb       7.58367     11.26108     12.75987        -0.561379      0.155550      0.229809
Pb      11.46773      3.63227      4.27378        -0.750700      0.580574     -0.418027
Pb      11.45183      3.88656      0.00533        -0.528332     -0.460429      0.013359
Pb      11.31355      0.02075      4.25602         0.539325      0.048314     -0.272203
Pb      11.31856     15.15719     16.91367         0.434449      0.145605      0.279320
Pb      11.29643      3.75087      8.48352         0.426961      0.235120     -0.122085
Pb      11.33400     15.14317      8.57894         0.002151     -0.077749     -0.469402
Pb      11.45504      3.80832     12.75322        -0.151166      0.083523     -0.051706
Pb      11.34686     15.15749     12.85305         0.081343      0.012273     -0.047333
Pb      11.38620      7.62104      4.30461        -0.049596     -0.140521     -0.897372
Pb      11.32375      7.53369      0.04107         0.027166     -0.004181      0.286131
Pb      11.37572      7.62351      8.33444         0.104238     -0.157447      0.486149
Pb      11.31490      7.48899     12.62723         0.447049      0.055051      0.621437
Pb      11.43482     11.50778      4.22871         0.150500     -0.229893     -0.332254
Pb      11.30068     11.31091      0.11699         0.310064      0.220760     -0.170574
Pb      11.33874     11.36573      8.53774         0.154680      0.137599     -0.372431
Pb      11.48769     11.38252     12.99710        -0.387684      0.067445     -0.362649
Ti       1.89185      1.90755      2.24716        -0.555655     -0.186656      0.261886
Ti       1.92362      1.86579     15.04022        -0.834211      0.339470     -1.453445
Ti       2.01039     13.30880      2.15398        -1.020531     -0.323758     -0.786013
Ti       1.93432     13.23674     14.96529        -0.282899      1.143372      0.440466
Ti      13.26999      1.94692      2.20264         0.174020     -0.863454     -0.228876
Ti      13.27730      1.90399     14.93899        -0.088499     -0.727614     -0.491578
Ti      13.40120     13.34912      2.24399        -0.568482      0.028915     -1.396590
Ti      13.34127     13.20202     15.07716        -0.193482      0.798963     -0.125006
Ti       1.80767      1.90077      6.37345        -0.134415      0.142577      0.543938
Ti       1.86424     13.28444      6.48653        -0.957778     -0.186894     -0.714790
Ti      13.22189      1.83890      6.48819         0.627950     -0.160962     -0.268080
Ti      13.24207     13.31041      6.48093         0.615842      0.440065     -0.917866
Ti       1.93333      1.92204     10.68218        -0.819335     -0.416219      1.103464
Ti       1.91071     13.21962     10.64662         0.685529      0.873108     -0.325925
Ti      13.20647      1.89988     10.73008         1.316352     -0.059659      0.291103
Ti      13.17901     13.29942     10.77129         0.079794     -0.486810     -0.070981
Ti       1.91356      5.64263      2.27219        -0.861235     -0.444454     -1.442880
Ti       1.89798      5.71197     15.04424        -0.157755     -0.573227     -0.691284
Ti      13.26633      5.70315      2.22481        -0.851793      0.771914     -0.359231
Ti      13.35116      5.75422     14.98844        -0.010864     -1.170148     -0.815078
Ti       1.83658      5.66226      6.44715        -0.070286      0.350819      0.537836
Ti      13.24831      5.70073      6.38790         0.701802     -0.719247      0.048275
Ti       1.87384      5.69142     10.72123        -0.067809     -0.035240      0.225448
Ti      13.31469      5.66309     10.74217         0.207615      0.454655     -0.852796
Ti       1.84606      9.48291      2.31589         0.464490      0.865743     -0.938122
Ti       1.80775      9.46660     15.04463         1.583097      0.683147     -1.336678
Ti      13.24766      9.48127      2.27962        -0.299662      0.419050     -0.621722
Ti      13.24201      9.43360     15.05948         0.407258      0.238518      1.207107
Ti       1.78876      9.50707      6.45743         1.068573     -0.740613     -0.375221
Ti      13.31376      9.49595      6.43335        -0.812961      0.459922     -1.319921
Ti       1.84594      9.42242     10.69882         0.589475     -0.688836     -0.383997
Ti      13.21731      9.47616     10.78294         0.611453     -0.021438     -0.785136
Ti       5.68451      1.86135      2.16140        -0.352586      1.272934      0.008269
Ti       5.64414      1.89508     14.99261        -0.032495     -0.569311     -0.592926
Ti       5.77584     13.28642      2.24739        -0.577852     -0.341236      0.111329
Ti       5.66377     13.30944     15.02253         1.364544      0.170308     -0.842173
Ti       5.65637      1.97912      6.36687         0.010779     -1.006228      0.012425
Ti       5.66298     13.28081      6.43188         0.171215      0.577237     -0.363388
Ti       5.65372      1.93534     10.65013        -0.679539     -0.308213     -0.360837
Ti       5.69835     13.30630     10.66254        -0.231458     -0.284904      0.482336
Ti       5.71479      5.68907      2.21339        -0.254006     -0.743024     -0.001316
Ti       5.69113      5.62537     15.00592        -0.372491     -0.108749      0.129224
Ti       5.61867      5.69635      6.57730         0.024349      0.881995     -1.685930
Ti       5.64433      5.74405     10.85406        -0.366016     -0.947470     -1.115830
Ti       5.67243      9.45362      2.25737         0.322061      0.561694     -0.921530
Ti       5.73684      9.47524     15.03387        -1.337716      0.386359     -0.623954
Ti       5.60797      9.44263      6.46793         0.158061      0.339520     -0.325117
Ti       5.70668      9.44467     10.66510         0.353186      1.005019     -0.792984
Ti       9.46954      1.88855      2.19282         0.793800      0.988516     -0.247392
Ti       9.45711      1.87166     14.98030         0.593630      0.450216     -0.148093
Ti       9.51097     13.32513      2.29503         0.980598      0.079085     -1.878381
Ti       9.48037     13.25617     15.06070        -0.398397      0.238833     -0.889335
Ti       9.46347      1.90519      6.51073         0.035508     -0.623621     -1.167053
Ti       9.47964     13.27590      6.46111         0.326589      0.556876     -0.700239
Ti       9.47081      1.92344     10.69213        -0.012911     -0.200413     -0.254868
Ti       9.42737     13.24607     10.88441         0.169629      0.439229     -0.931523
Ti       9.43839      5.71405      2.27492         0.743429     -0.481975     -0.691342
Ti       9.53459      5.65625     14.98953        -0.750344     -0.501897     -1.244010
Ti       9.53679      5.70283      6.39450        -1.278070     -0.198887     -0.465702
Ti       9.45032      5.67655     10.76332         0.648633     -0.018582     -0.670446
Ti       9.41219      9.43607      2.27514         0.707588     -0.280480     -0.919704
Ti       9.46706      9.41828     14.99497         0.313926      0.302002     -0.727209
Ti       9.44223      9.49004      6.37701         0.223630     -0.046975     -0.339373
Ti       9.48988      9.55468     10.71279        -0.190964     -0.696651     -0.337810
O       1.74235      2.00817      0.47254         0.175391     -0.359485     -0.621437
O       1.98601      1.99571     13.21943        -0.458603     -0.091956      0.274460
O       2.04848     13.30746      0.31900        -0.448896     -0.198204      0.894377
O       1.99470     13.34339     13.20557        -0.140247     -0.529851     -0.745107
O      13.34490      1.92883      0.39396        -0.258646      0.030665      0.536898
O      13.18502      1.82827     13.07998         0.283165      0.497317      1.145919
O      13.43266     13.32373      0.39666        -0.384077     -0.019919      0.711408
O      13.22277     13.10085     13.25058         0.274028      0.249180     -0.153772
O       1.74349      1.86870      4.62812         0.591663     -0.044533     -0.485344
O       1.92958     13.28920      4.65860        -0.172175      0.076142      0.880971
O      13.16712      1.86737      4.68129         0.208362      0.152099      0.369814
O      13.21842     13.44496      4.64593         0.411215     -0.950899      0.459865
O       1.89368      1.80300      8.88843         0.082658      0.334180     -0.203842
O       1.99302     13.27553      8.84627        -0.310876      0.212005      0.656930
O      13.23346      1.90155      8.95537         0.298904     -0.150733     -0.416076
O      13.06685     13.28458      9.01708         0.471620      0.016940     -0.521797
O       1.79883      5.60657      0.41833         0.695959      0.489794      1.035952
O       1.85733      5.70753     13.23582         0.242086      0.083084      0.539929
O      13.26902      5.79627      0.42099        -0.202794     -0.314338      0.399122
O      13.18326      5.72865     13.16787         0.125649     -0.195081      0.294507
O       1.81167      5.69286      4.66748         0.207879      0.121790     -0.558538
O      13.25659      5.58379      4.61222         0.026760      0.385246     -0.165298
O       1.93163      5.72062      8.93557        -0.058012     -0.022302     -0.388957
O      13.35215      5.74824      8.92389        -0.348568     -0.303617      0.413499
O       1.91256      9.43680      0.50420         0.131953      0.191108     -0.019827
O       1.79161      9.36233     13.24554         0.222085      0.174806     -0.319950
O      13.20667      9.54012      0.45197         0.062914     -0.355337      0.829792
O      13.27432      9.59324     13.32444         0.234331     -0.165979     -1.317558
O       1.86422      9.57519      4.61656        -0.166118     -0.386457      0.416794
O      13.33515      9.63980      4.56399        -0.068211     -0.349394      1.837362
O       1.87059      9.42998      8.87813        -0.181945      0.189293      1.001038
O      13.39466      9.53863      8.99325        -0.598262     -0.397585     -0.400502
O       5.66411      1.85509      0.37249         0.161995      0.061369      0.658027
O       5.63833      1.84532     13.15435         0.125061      0.113369      1.100978
O       5.68978     13.24097      0.47671         0.220279      0.248882      0.158245
O       5.58785     13.44083     13.23178         0.265736     -0.412094      0.042183
O       5.73694      1.90101      4.55859        -0.237774      0.311306      0.610944
O       5.67863     13.38654      4.63666        -0.121801     -0.246105      0.429300
O       5.53209      2.14586      8.83340         0.623823     -0.850767      0.555606
O       5.73778     13.22508      8.89890        -0.086841      0.006838     -0.814083
O       5.77116      5.69133      0.40756        -0.495505      0.119616      0.399763
O       5.70265      5.51721     13.21372        -0.054228      0.722928     -0.102124
O       5.56128      5.72210      4.74164         0.385362     -0.054373      0.853685
O       5.67922      5.70820      8.99262        -0.042728     -0.215711      0.522355
O       5.78373      9.60908      0.41186        -0.423194     -0.614458      0.800093
O       5.81187      9.38690     13.20724        -0.017541      0.141816      0.163648
O       5.58995      9.49215      4.67612        -0.114847     -0.356502     -0.227641
O       5.80664      9.51955      8.82147        -0.561539      0.120597      0.561942
O       9.57778      1.97186      0.42669        -0.131005     -0.501465     -0.543007
O       9.45899      1.84177     13.16157         0.162623      0.319528      0.513207
O       9.52672     13.32979      0.44044        -0.147357      0.001008      0.552272
O       9.53689     13.29200     13.20966        -0.246993     -0.155183      0.217452
O       9.47861      1.93389      4.63541        -0.026955     -0.011600      1.160340
O       9.55289     13.36120      4.65636        -0.174689     -0.479647      0.214430
O       9.36852      1.88013      8.87080         0.289014      0.089151      0.576525
O       9.50797     13.28703      9.06463        -0.166217      0.109801     -0.155718
O       9.45696      5.78603      0.42432        -0.048441     -0.108833      0.535919
O       9.56773      5.63290     13.06631        -0.192515      0.557496      1.573988
O       9.39423      5.62810      4.60036         0.251408      0.143353      0.986754
O       9.36427      5.73002      8.91835         0.392023     -0.268763      0.772137
O       9.39941      9.39846      0.39063         0.288071      0.296535      1.228619
O       9.45972      9.51979     13.12910        -0.329838     -0.328760      0.791979
O       9.51904      9.50274      4.58416        -0.053159      0.043143      0.545236
O       9.54881      9.45431      8.89983        -0.259679      0.264816      0.062436
O       3.73254      2.03052      2.37930         0.987003     -0.738650      0.681264
O       3.71869      1.81079     15.39661         1.761392      0.495321      0.231182
O       3.81375     13.26762      2.58213         1.078889      0.298530      0.282986
O       3.85476     13.31167     15.37384        -1.273588     -0.212159      0.064505
O      15.17052      1.95252      2.63132        -0.657432     -0.025696     -0.093938
O       0.01135      1.92052     15.26830        -1.234291      0.268801      0.081407
O       0.11140     13.31267      2.45005        -0.881171      0.062601      0.568202
O       0.03913     13.26693     15.26700        -0.684325      0.070134      0.217463
O       3.77262      1.91103      6.67034        -0.566548      0.219637      0.184435
O       3.74860     13.21100      6.70112         0.364436      0.124047      0.470339
O      15.12883      1.90492      6.78659         0.113360     -0.316573      0.343576
O      15.18682     13.33650      6.92792        -0.243410     -0.129796     -0.083430
O       3.76464      1.98188     11.00193        -0.075523      0.146988     -0.064006
O       3.76523     13.22062     11.07625        -0.065368     -0.282463     -0.097795
O      15.19739      1.79312     11.14676        -0.392415      0.001938     -0.236893
O       0.04904     13.37634     11.03056        -0.622652     -0.463612     -0.190986
O       3.77350      5.66825      2.57476         0.044915      0.511210      0.029166
O       3.81570      5.54195     15.41835        -0.088161      0.884223     -0.080385
O      15.16125      5.63142      2.54603         0.047514      0.448725      0.459334
O       0.02467      5.72053     15.31094        -0.403387      0.129152      0.046301
O       3.68727      5.75673      6.76084         0.925312     -0.185172      0.524313
O      15.13315      5.66862      6.75036         0.284143     -0.009383      0.313853
O       3.74811      5.61284     11.19708         0.901600     -0.203943     -0.171312
O       0.01992      5.90040     10.95102        -0.534895      0.128481      0.546241
O       3.83116      9.54631      2.54249        -0.540446     -0.585565      0.262480
O       3.83047      9.60860     15.23856        -0.304767     -0.202088      0.432705
O      15.16779      9.40421      2.56828         0.146856      0.535334      0.079984
O       0.02815      9.43848     15.51058        -1.664182      0.198110     -0.307282
O       3.71218      9.56947      6.82083        -0.077704     -0.208803     -0.124618
O      15.13576      9.45177      6.88582        -0.327921      0.156028     -0.188719
O       3.86272      9.51671     11.08221        -1.146558      0.265568      0.126886
O      15.16174      9.19958     11.11035         0.875657      1.213628     -0.598416
O       7.60812      2.01291      2.40792        -0.686037     -0.307147      0.588703
O       7.57742      1.83063     15.36998         0.122117      0.347321     -0.224586
O       7.67298     13.29388      2.66976        -1.443233      0.399604     -0.209902
O       7.60805     13.37073     15.38951        -0.067965     -0.123508      0.052705
O       7.58707      1.81596      6.67681        -0.399907      0.356943      0.483808
O       7.56072     13.40504      6.74371         0.334937     -0.435070      0.350570
O       7.53886      1.82999     11.02271         0.356713      0.045277     -0.142316
O       7.50910     13.48891     11.08717         0.825399     -0.395020      0.127867
O       7.51483      5.78042      2.55598         1.049242     -0.717747      0.428199
O       7.58196      5.67240     15.33729        -0.090023      0.009286     -0.284882
O       7.60119      5.80573      6.87254        -0.342912     -0.728343     -0.280788
O       7.57599      5.69583     11.17247        -0.368200      0.223766     -0.217974
O       7.56595      9.47161      2.68019         0.118941     -0.031162      0.039985
O       7.60915      9.50496     15.33066         0.045951     -0.120800     -0.015365
O       7.53469      9.42823      6.55688         1.068008      0.292561      0.715385
O       7.58793      9.35600     10.92131         0.302838      0.026720      0.715312
O      11.38152      1.86534      2.64437         0.622928      0.073011     -0.312295
O      11.39704      1.97732     15.33840        -0.133860     -0.293092     -0.231723
O      11.42020     13.26868      2.49377         0.055951      0.172766      0.379502
O      11.38836     13.30168     15.36178         0.209910     -0.142382      0.085166
O      11.36324      1.85839      6.95902        -0.099215      0.213431     -0.255056
O      11.37411     13.21061      6.78693        -0.601419      0.197327      0.441496
O      11.36021      1.96817     10.95357        -0.249622      0.233519      0.158435
O      11.34157     13.14418     11.12055         0.143763     -0.021580      0.398475
O      11.32212      5.78600      2.54125         1.204312     -0.146050      0.073880
O      11.31064      5.78822     15.37759         1.376978     -0.311330     -0.075269
O      11.39775      5.67439      6.78267        -0.871037      0.063212      0.256828
O      11.38397      5.52351     11.01550        -0.079801      0.422927     -0.002124
O      11.33770      9.49219      2.59030         0.408278      0.261970     -0.034016
O      11.33388      9.52520     15.29354         0.553589     -0.486718      0.248032
O      11.43447      9.44212      6.76138        -0.344945      0.205377      0.113036
O      11.39278      9.68850     11.01051        -0.797498     -0.110294      0.352019
O       1.89154      3.80548      2.62057        -0.205719      0.120475      0.351935
O       1.92970      3.80035     15.39120        -0.401912      0.124384     -0.108185
O       1.93719     15.19178      2.54984         0.068593      0.151786      0.070605
O       1.80158      0.01098     15.34483         0.527875     -0.858265      0.084401
O      13.20606      3.84602      2.54592         0.023136     -0.760093      0.016556
O      13.31162      3.84037     15.29649        -0.332005     -0.395901      0.049170
O      13.32166      0.03285      2.59857        -0.003119     -0.097730     -0.286644
O      13.27347      0.00709     15.28652         0.112640     -0.121300      0.041453
O       1.83237      3.77783      6.74973         0.088310      0.050261      0.276518
O       1.85260      0.02557      6.87073         0.259598     -0.663326     -0.271969
O      13.27134      3.76692      6.76144        -0.343270      0.123829      0.441354
O      13.26415     15.13249      6.77182        -0.264144      1.095942      0.796979
O       1.73802      3.79898     11.02456         0.196800     -0.044046      0.091013
O       1.90509      0.03855     11.15668         0.171191     -1.085388     -0.884156
O      13.42920      3.78928     11.05012        -0.166455      0.008085      0.139979
O      13.20240     15.15246     11.11623        -0.101166      0.097271     -0.070130
O       1.85848      7.57007      2.55794         0.254667     -0.213078      0.333403
O       1.93349      7.67879     15.47322         0.711353     -2.143027      0.084933
O      13.27623      7.62166      2.72099        -0.049090     -0.363235     -0.262708
O      13.30387      7.52672     15.33404        -0.230278      2.008061      0.175989
O       1.80452      7.63115      6.90309         0.213898     -0.512896     -0.571003
O      13.26994      7.54671      6.67126         0.034945      1.244456      0.257285
O       2.16290      7.58668     11.03433        -0.664762      0.212604      0.096009
O      13.13376      7.60486     11.13826        -0.190937     -0.379664     -0.085671
O       1.90924     11.37719      2.46540        -0.087861      0.297731      0.454905
O       1.78433     11.37879     15.26613         0.723977      0.221207      0.428331
O      13.34917     11.45966      2.60862        -0.049830     -0.552010     -0.007179
O      13.29397     11.35448     15.47641        -0.078726     -0.032646     -0.225726
O       1.69092     11.32690      6.83333         0.597617      1.175855     -0.006467
O      13.27288     11.43502      6.83164         0.403992     -1.231780      0.092811
O       1.85961     11.29205     10.97773        -0.211805      1.121788      0.229552
O      13.44486     11.35219     11.04055         0.072711      0.629438      0.291478
O       5.59833      3.77970      2.57021         0.601950      0.539683      0.158070
O       5.74954      3.72776     15.44701        -0.465079      0.236011     -0.594937
O       5.71772      0.05534      2.66487        -0.175719     -1.079912     -0.544651
O       5.65295      0.05120     15.53056         0.216251     -0.787547     -0.586451
O       5.68159      3.82465      6.78624         0.148015      0.129550      0.077706
O       5.60638      0.07666      6.74997         0.031708     -1.005832      0.337340
O       5.64428      3.74236     11.15137         0.551819      0.858593     -0.197528
O       5.51556     15.19935     10.88113         0.154682      0.286644     -0.012429
O       5.73007      7.56083      2.67980        -0.861363      0.840071     -0.448501
O       5.60138      7.54958     15.37523         0.248585      0.054245     -0.101360
O       5.64108      7.62580      6.86841        -0.176821     -0.681034      0.044194
O       5.58851      7.59563     11.04413         0.241469     -0.754099      0.326466
O       5.72441     11.39991      2.63064         0.251165      0.202290      0.045503
O       5.80106     11.41199     15.17846        -0.122291      0.114210      0.423462
O       5.72341     11.38290      6.73243        -0.063423      0.644255      0.336274
O       5.73134     11.34011     11.05290         0.302781      0.725988      0.358569
O       9.59500      3.79536      2.51093        -0.612873      0.488939      0.433625
O       9.49749      3.82395     15.36553        -0.189716     -0.535591     -0.192071
O       9.48767      0.03973      2.58607        -0.175205     -0.719561      0.065947
O       9.46409      0.01403     15.27740         0.603302     -0.069728      0.341147
O       9.50985      3.77130      6.81286        -0.294536      0.725684      0.098759
O       9.54778     15.17816      6.75802        -0.149204     -0.215837      0.542785
O       9.41523      3.79676     11.16165        -0.083226     -0.747850     -0.754284
O       9.58507      0.05270     11.17982        -0.132640     -0.447351     -0.405276
O       9.55850      7.55437      2.70996        -0.777870      1.261136     -0.210076
O       9.35836      7.54251     15.33518         0.368589      0.725115     -0.551214
O       9.47245      7.59646      6.74521         0.483811     -0.099885      0.068352
O       9.56113      7.61156     11.03578        -0.038464     -0.343057      0.172300
O       9.45296     11.39617      2.47582         0.039515     -0.375691      0.387327
O       9.52573     11.37099     15.32432        -0.374301     -0.157468      0.154472
O       9.49854     11.34861      6.74306        -0.334085      0.413952      0.310993
O       9.25864     11.39050     11.07816         0.150830      0.051759     -0.039548
