  # total energy = -7881.61054398 
CRSYTAL
PRIMVEC
    15.3600000000000000    0.0000000000000000    0.0000000000000000
     0.0000000000000000   15.3600000000000000    0.0000000000000000
     0.0000000000000000    0.0000000000000000    17.440000000000000
PRESSURE
1.88868 1.41501 -0.984888 0.152025 0.105716 0.012072
PRIMCOORD
320 1
Pb       3.94374      3.78527      4.34477        -0.752382     -0.190862      0.342880
Pb       3.84664      3.80306     17.43346         0.072561      0.061517     -0.266982
Pb       3.80278      0.02460      4.36192        -0.035444     -0.426968     -0.069019
Pb       3.85176     15.30453     17.31644        -0.572815     -0.226258      0.283382
Pb       0.05935      3.84633      4.32106        -0.355559     -0.099714     -0.440608
Pb       0.00130      3.78739     17.41232         0.087164     -0.223667      0.330363
Pb       0.04053      0.01733      4.37744         0.352767     -0.114395     -0.500256
Pb      15.26699      0.09927     17.34365         0.502492     -0.638950      0.170841
Pb       3.74819      3.89258      8.61080         0.085193     -0.573309      0.995990
Pb       3.71428     15.26128      8.69365         0.036944      0.813857      0.488007
Pb      15.17798      3.91546      8.67526         0.766578     -0.667553      0.363240
Pb      15.29384     15.27259      8.70542         0.357535      0.068899      0.382942
Pb       4.03177      3.70279     12.98305        -0.829091      0.811431      0.531861
Pb       3.83982     15.35012     12.96814        -0.116385     -0.018580     -0.134923
Pb       0.01687      3.77972     13.00792        -0.274973      0.065676      0.342699
Pb      15.26357     15.19549     13.00545         0.143912      1.028156      0.638081
Pb       3.85280      7.69306      4.30122         0.026011      0.225872      0.138218
Pb       3.78682      7.69526      0.02599         0.134631     -0.296578      0.081670
Pb       0.05366      7.65209      4.26809        -0.431537     -0.053828      0.211730
Pb       0.11143      7.68556      0.04307        -0.056074     -0.125959     -0.234339
Pb       3.72164      7.64582      8.63173         0.580806      0.081847      0.188256
Pb      15.19218      7.67611      8.66411         0.753069      0.360226      0.356527
Pb       3.89303      7.59850     13.09399        -0.343715     -0.130708      0.095940
Pb      15.35583      7.68412     13.03676        -0.094893     -0.356086      0.052894
Pb       3.82360     11.48148      4.36466         0.243361      0.462126     -0.406803
Pb       3.79593     11.51432     17.40243        -0.110160      0.517160     -0.106467
Pb       0.06343     11.55419      4.24065         0.032190     -0.024431      0.502730
Pb      15.23106     11.44912      0.01992         0.835425      0.504394     -0.290314
Pb       3.84722     11.43261      8.68842         0.040917      0.740972      0.307668
Pb       0.03318     11.50549      8.71280        -0.347168      0.379887      0.029170
Pb       3.86431     11.36626     12.93663         0.302422      0.530460      0.450854
Pb       0.09380     11.41878     13.01176        -0.603413      0.236534      0.260884
Pb       7.64346      3.81645      4.17686         0.536082      0.158672      1.304268
Pb       7.70428      3.75573      0.05679         0.112647      0.134492     -0.574146
Pb       7.63219     15.28264      4.37246         0.183754      0.004033      0.435216
Pb       7.53130     15.32078     17.40332        -0.052110      0.340922     -0.285830
Pb       7.48505      3.91392      8.60119         0.701531     -0.009370      0.984479
Pb       7.65855      0.09799      8.71688         0.004440     -0.114442      0.173358
Pb       7.73175      3.85530     13.00337        -0.227360     -0.212199     -0.401125
Pb       7.71423      0.02345     12.93740        -0.124944     -0.457741     -0.000108
Pb       7.70277      7.65251      4.31307        -0.148305     -0.321912     -0.029479
Pb       7.58067      7.69076      0.01194        -0.120718     -0.393122     -0.000639
Pb       7.74691      7.61830      8.72371        -0.554209      0.165699     -0.261450
Pb       7.72006      7.68548     13.12696         0.189707      0.089403     -0.198408
Pb       7.64293     11.38814      4.33673        -0.292622      0.502521      0.166029
Pb       7.56307     11.63199     17.23256        -0.287914     -0.564572      0.816135
Pb       7.81182     11.53203      8.75629        -0.755820      0.226564     -0.379034
Pb       7.70632     11.61884     12.95443        -0.060369      0.240966      0.170244
Pb      11.51965      3.72583      4.26527         0.033756      0.020825      0.637670
Pb      11.57949      3.84563      0.11880        -0.688049     -0.300880     -0.149109
Pb      11.65688     15.32257      4.35996        -0.544359      0.262077      0.161913
Pb      11.28303     15.28346      0.01434         0.559911      0.413138     -0.074418
Pb      11.54078      3.83632      8.60524        -0.262091     -0.239114      0.078326
Pb      11.42918      0.06168      8.68667         0.180754     -0.143312     -0.303393
Pb      11.45559      3.77212     12.99825         0.311912      0.431546      0.110248
Pb      11.40547     15.28906     13.11997         0.465174      0.161888     -0.040678
Pb      11.57113      7.51325      4.31382         0.188637      0.283930     -0.009536
Pb      11.38730      7.74736     17.40268         0.382017     -0.539827     -0.020619
Pb      11.59572      7.70021      8.62872        -0.059622      0.146703      0.046144
Pb      11.39728      7.54263     13.16759         0.593071      0.568625     -0.526125
Pb      11.44485     11.50896      4.23354         0.431802      0.035342      0.744501
Pb      11.43095     11.51572     17.35401         0.270521      0.148930      0.746306
Pb      11.36168     11.40818      8.71205         1.304908      0.320217     -0.019898
Pb      11.58990     11.49092     13.05571        -0.329213     -0.306950      0.220586
Ti       1.96173      1.90779      2.36602        -0.981854     -0.808512     -0.070057
Ti       1.94797      1.94019     15.37127        -1.325398     -0.692230      0.188867
Ti       1.95512     13.41042      2.25194         0.685098      0.360110     -0.985418
Ti       1.93169     13.49302     15.30309        -0.934816     -0.151918      0.719865
Ti      13.45476      1.84897      2.26967        -0.035699      0.901207      0.892639
Ti      13.29111      1.88702     15.50373         0.907717     -1.047168     -1.631023
Ti      13.42449     13.41391      2.35726         0.731381      0.641534     -0.235438
Ti      13.46432     13.31421     15.46050         0.537352      2.167861     -1.033421
Ti       1.85412      1.99182      6.71196         0.405814     -0.918340     -0.567958
Ti       1.93837     13.47562      6.68309        -0.914622      0.401969     -0.282446
Ti      13.48127      1.85439      6.66337        -1.027030      0.603544      0.218016
Ti      13.38916     13.39758      6.74052        -0.116200     -0.223762     -0.293520
Ti       1.88101      2.01036     10.99851        -0.908550     -1.028158     -1.162698
Ti       1.92207     13.45081     11.15457        -0.431059      1.095496     -1.337255
Ti      13.35082      1.93930     11.06534         0.500088     -0.994214     -0.754083
Ti      13.43404     13.48257     11.13797        -0.134708     -0.620542     -0.905381
Ti       1.96556      5.76366      2.38042        -1.824142     -0.321331     -0.523496
Ti       1.87336      5.73437     15.49949         0.205124     -0.184457     -0.979935
Ti      13.43797      5.69788      2.35460         0.721449     -0.231263      0.442095
Ti      13.35084      5.69145     15.52724         0.526044      0.377528     -0.802986
Ti       1.86627      5.78603      6.66344        -0.280718      0.111068     -1.265215
Ti      13.47455      5.70761      6.66185        -0.661601      0.454941     -1.045398
Ti       1.92628      5.84201     11.00050        -0.715250     -1.047317     -0.244059
Ti      13.44462      5.75687     11.01253        -0.432723      0.067937      1.072044
Ti       1.95086      9.58117      2.27875         0.579077      0.135412     -0.222719
Ti       1.97288      9.63866     15.41584        -0.744346      0.704539     -0.544925
Ti      13.48790      9.67805      2.32312         0.362704     -1.349330      0.234481
Ti      13.37575      9.51835     15.47256         1.068401      0.166786     -0.301755
Ti       1.93134      9.63790      6.62977        -0.756826     -0.018342     -0.720592
Ti      13.48111      9.64189      6.68508        -0.370130     -0.249033     -2.112921
Ti       1.96757      9.59211     10.98561        -0.645014     -0.372111      0.359470
Ti      13.40017      9.59137     11.06433        -1.034348      0.280375     -0.797860
Ti       5.79337      1.90014      2.38615        -0.502949     -1.141727     -1.521630
Ti       5.72037      1.86779     15.35827         1.156260      0.046266     -0.719790
Ti       5.72003     13.49325      2.31962        -0.870912     -0.388449     -0.385653
Ti       5.68806     13.35105     15.26793        -0.492898      0.861248     -1.765422
Ti       5.69969      1.96802      6.76624        -0.173383     -0.815984     -0.721356
Ti       5.75634     13.52151      6.81958         0.151327     -0.533427     -0.928453
Ti       5.75102      1.91294     11.03218         0.298791      0.355048     -0.750844
Ti       5.73885     13.38880     10.96901         1.158050      0.279026     -0.438981
Ti       5.69892      5.74393      2.40639         1.128870      0.126681     -1.606293
Ti       5.72515      5.71234     15.40630         0.037031     -0.650360      0.002366
Ti       5.63836      5.78233      6.59361         1.090060      0.918462     -0.473943
Ti       5.74353      5.83054     11.06191         0.168034     -0.543216      0.158712
Ti       5.79105      9.67778      2.33860        -0.603602     -0.662432     -0.415976
Ti       5.69978      9.48384     15.34505         0.518846      0.506903      0.139141
Ti       5.75925      9.66456      6.72206         0.300124     -0.734110     -0.767277
Ti       5.75038      9.49054     10.91675        -0.304137      0.646288      0.225969
Ti       9.56812      1.83166      2.43936         0.497265      0.808676     -2.042818
Ti       9.51100      1.83960     15.35510        -0.293995      1.250537      1.139952
Ti       9.55161     13.40183      2.37080         0.093640      0.453880     -1.099139
Ti       9.57999     13.42446     15.46385        -0.548835     -0.886971     -2.568534
Ti       9.51628      1.99005      6.73526         0.822051     -0.928942     -0.015562
Ti       9.51259     13.42364      6.70752         1.152256      1.207962     -0.035899
Ti       9.61455      1.95845     11.01589        -0.618846     -0.422034      0.260688
Ti       9.73190     13.39198     10.95986        -1.205666      0.610867      2.075272
Ti       9.55762      5.71430      2.33848        -0.065963     -0.233241     -0.441655
Ti       9.57831      5.80432     15.43005        -0.893005     -1.090451     -0.178492
Ti       9.57614      5.79686      6.75073        -0.157242     -1.032791     -1.849836
Ti       9.59317      5.80668     10.93843         0.453314     -0.273739      1.289937
Ti       9.68317      9.59826      2.26881        -1.312055     -0.229728      0.525124
Ti       9.56221      9.66317     15.49681        -0.460919     -0.566048     -1.319453
Ti       9.59857      9.56244      6.58550         0.256622      0.319325      1.163911
Ti       9.48974      9.57676     11.06943         1.762999     -0.114909      1.418174
O       1.89690      1.72884      0.63243         0.486771      0.800658      0.017799
O       1.89309      1.99625     13.60917         0.055562     -0.104169      0.415547
O       2.06299     13.44929      0.45187        -0.156135     -0.249577      1.064746
O       1.81469     13.59684     13.51686         0.610253     -0.549284     -0.472775
O      13.33402      1.87965      0.52930        -0.087105     -0.030480     -1.031625
O      13.42841      1.86662     13.71154        -0.517659      0.458749      0.853753
O      13.60518     13.35206      0.63743        -0.417931     -0.047037     -0.654187
O      13.31837     13.36516     13.68475         0.263667     -0.127446      0.055470
O       1.76461      1.91103      4.87274         0.564831      0.163093      0.812793
O       1.86134     13.50715      4.90916         0.525753     -0.454633      0.994314
O      13.42011      1.90266      4.89247         0.003846     -0.483823      0.558368
O      13.43713     13.48055      4.96672        -0.322745     -0.058819     -0.330044
O       1.92853      1.95028      9.17449        -0.100573      0.135915      1.652024
O       1.74866     13.52076      9.36927         0.628196     -0.033290     -0.090002
O      13.29872      1.95993      9.26723        -0.205056      0.084548     -0.012163
O      13.44005     13.42916      9.39162        -0.102325      0.110170     -0.983362
O       1.94236      5.82691      0.60861         0.246570     -0.017881     -0.763398
O       1.82452      5.73508     13.73535        -0.099603      0.049242      0.322076
O      13.24486      5.67246      0.62529         0.090301      0.237907     -0.968221
O      13.38441      5.73318     13.78110         0.109014     -0.197419     -0.446030
O       1.75596      5.78381      4.82662         0.450220     -0.108952      1.471247
O      13.53987      5.55052      4.90490        -0.305378      0.992317     -0.340713
O       1.83342      5.84388      9.21400         0.245071     -0.150909      0.303202
O      13.51059      5.83949      9.24817        -0.155280     -0.454158     -0.276746
O       2.03850      9.49360      0.48617        -0.346792      0.122616     -0.136272
O       1.96099      9.71275     13.60310        -0.020470     -0.571761      0.580898
O      13.53090      9.61358      0.53677        -0.430196      0.008705      0.359641
O      13.36674      9.64455     13.73959         0.566092     -0.187575     -0.584617
O       1.88868      9.72467      4.78966         0.252323     -0.350319      1.725118
O      13.50803      9.61533      4.84310        -0.218722      0.067212      0.985500
O       1.88681      9.46269      9.25042         0.154057      0.602961     -0.187293
O      13.42689      9.59936      9.24380         0.065718     -0.122269      0.763019
O       5.76883      1.80500      0.56669         0.031750      0.211581      0.899017
O       5.83913      2.01765     13.54553        -0.320153      0.023278      0.493193
O       5.61620     13.54014      0.51686         0.321468     -0.206512      0.868891
O       5.71298     13.31778     13.41520         0.011156      0.166484      1.335880
O       5.70601      1.95772      4.96262        -0.067313      0.109270      0.586968
O       5.67801     13.40829      5.03940         0.380881      0.176848      0.211076
O       5.79879      2.01110      9.25068        -0.227841     -0.329101      0.307013
O       5.89506     13.53769      9.16561        -0.665181     -0.515245      0.886290
O       5.91074      5.74322      0.58904        -0.940138     -0.097678      1.239226
O       5.60339      5.72657     13.58002         0.733749      0.175173      0.920677
O       5.89183      5.68347      4.81017        -0.878332     -0.060090      0.789160
O       5.64425      6.00806      9.35404         0.083140     -0.228222     -1.248396
O       5.79409      9.61694      0.57111        -0.047375     -0.154946      0.366708
O       5.62010      9.39613     13.55428         0.213771      0.630812      1.328730
O       5.73611      9.74985      4.88966        -0.101903     -0.330738      0.764172
O       5.68495      9.40195      9.14807         0.276307      0.271022     -0.046218
O       9.50208      1.88222      0.61446         0.220339     -0.601918      0.662770
O       9.56433      1.94277     13.61355        -0.309483     -0.041041     -0.823124
O       9.67027     13.45292      0.56362        -0.859119     -0.005267      0.637246
O       9.58457     13.29092     13.63418        -0.135709      0.400812      1.035579
O       9.56370      1.94045      4.99856        -0.196471      0.181196     -0.996796
O       9.52334     13.48868      4.95418        -0.019162     -0.463049     -0.907183
O       9.63898      1.75857      9.28351         0.018495      0.568822     -0.552453
O       9.74762     13.40602      9.24201        -0.390370     -0.202314     -1.205337
O       9.55261      5.79325      0.55299         0.197177      0.021695      0.389418
O       9.69912      5.86687     13.61010        -0.842055     -0.499776      1.208851
O       9.47948      5.57036      4.92654         0.262035      0.890280      1.444789
O       9.71628      5.92365      9.22236        -0.275802      0.201965     -1.451045
O       9.65887      9.64842      0.50881        -0.109486     -0.346948     -0.075216
O       9.52491      9.52993     13.74275        -0.188146      0.287308     -0.379859
O       9.56690      9.66358      4.86852         0.072150     -0.074422     -0.917665
O       9.74349      9.61126      9.36510        -0.768952     -0.167332     -1.589707
O       3.86854      1.97436      2.79892        -0.534000     -0.517568     -0.058654
O       3.86446      1.92138     15.74516        -0.516438      0.205847      0.084963
O       3.85836     13.50598      2.85963         0.271779     -0.509854     -0.265194
O       3.78863     13.45165     15.72154         0.804085      0.356750     -0.153307
O      15.30714      1.78696      2.67560         0.945562      0.346682      0.063398
O       0.01092      1.95783     15.88456        -0.451766      0.103771     -0.182773
O       0.15736     13.38629      2.71386        -2.097422     -0.212731      0.082852
O       0.04020     13.42332     15.69675        -0.846557     -0.437235      0.310887
O       3.74380      1.91932      7.16049         1.312985      0.341867     -0.428093
O       3.86881     13.44365      7.18632        -0.890731     -0.142527     -0.078660
O      15.34619      1.91591      7.04491        -0.687015      0.235633      0.227439
O      15.32774     13.43720      7.02636         0.272267      0.261339      0.548917
O       3.81238      2.01340     11.42657         0.189860     -0.506750     -0.315474
O       3.88106     13.60242     11.27242        -0.670489     -0.392962      0.285986
O      15.21227      1.87926     11.20285         1.386481      0.108342      0.756579
O      15.31793     13.44595     11.30999         0.522659     -0.218872      1.280972
O       3.77108      5.78567      2.72782         1.536436     -0.258396      0.441038
O       3.85201      5.63424     15.81173        -0.024130     -0.133720      0.360599
O       0.03068      5.74415      2.64040        -1.070977      0.137971      0.373800
O      15.31138      5.67566     15.96116        -0.068306      0.649721     -0.163714
O       3.73372      5.70266      7.01521         0.695094      0.036567     -0.162299
O      15.34176      5.74522      7.03269         0.791393      0.020757      0.467906
O       3.76884      5.84275     11.40686         0.326326     -0.347377      0.105955
O       0.02517      5.69474     11.43693        -1.225970      0.490853      0.189861
O       3.86220      9.39331      2.69157         0.203601      0.627030      0.128626
O       3.87349      9.64059     15.86460        -0.284443     -0.557983     -0.356071
O       0.05964      9.81202      2.54170        -1.087389     -0.736823      0.234807
O       0.05411      9.50318     15.82387        -0.124274      0.120986      0.001214
O       3.80943      9.76246      7.14937        -0.401590     -0.564623     -0.765100
O       0.00352      9.62279      7.05339         1.095885      0.048444      0.131261
O       3.88374      9.64899     11.35022        -1.031249     -0.798710     -0.087278
O      15.34138      9.71514     11.41925         0.348695     -0.633678      0.071804
O       7.67197      1.78930      2.69797        -0.677148      0.418564      0.486821
O       7.64101      1.73742     15.80200        -0.251008     -0.088936      0.115982
O       7.61270     13.47068      2.69984         0.722765     -0.025589      0.068933
O       7.51661     13.44575     15.69676         1.218491     -0.379167      0.447495
O       7.62020      1.99712      7.14190        -0.273924      0.034483      0.035528
O       7.64625     13.58097      7.17738         0.654150     -1.130263     -0.071115
O       7.65297      1.92863     11.43544         0.826588      0.200350      0.152684
O       7.72292     13.38845     11.26937        -0.013744      0.163910      0.481320
O       7.65567      5.68892      2.71735         0.129151      0.419925      0.062295
O       7.61850      5.86126     15.89193         0.410253     -0.041271     -0.757848
O       7.59222      5.87666      7.16461         0.131007     -0.127039     -0.180931
O       7.69696      5.77811     11.19351         0.129536      0.357558      0.793787
O       7.65507      9.59380      2.78796         0.460513     -0.382365     -0.299887
O       7.62719      9.58118     15.80182        -0.859075      0.081169     -0.018063
O       7.67741      9.53741      7.03186         0.140631      0.099887      0.184997
O       7.55965      9.60068     11.32945         1.378828     -0.228049      0.250885
O      11.45220      1.95190      2.74692         1.074837     -0.228955      0.013964
O      11.35976      1.71959     15.81492         0.923099      0.626413      0.070281
O      11.50446     13.31439      2.56005        -0.000882      0.562744      0.791380
O      11.42345     13.26821     15.87484         1.150530      0.808258     -0.153350
O      11.47386      2.08959      7.05697         0.602746     -0.856709      0.098352
O      11.42357     13.36756      7.09766         1.126428      0.586085     -0.122930
O      11.41646      1.87678     11.53070         0.760909      0.247074      0.060741
O      11.54565     13.36174     11.48531        -0.929248      0.169993      0.087905
O      11.52035      5.60189      2.80527        -0.206024      0.782224     -0.124939
O      11.37643      5.59365     15.85647         0.378096      0.575019      0.252039
O      11.55480      5.87020      7.00072        -0.610725     -0.419135      0.075527
O      11.49390      5.72818     11.44330         0.942490      0.290575     -0.019381
O      11.48105      9.64986      2.70034         0.783454     -0.229600     -0.131454
O      11.54411      9.71285     15.75928        -1.020809     -0.095526      0.700545
O      11.53448      9.53226      7.01874        -0.308806      0.221293      0.034250
O      11.44275      9.53270     11.43812         0.853258      0.392975      0.232966
O       1.82883      3.86373      2.68524         0.654049     -0.986937      0.022127
O       1.89258      3.78275     15.94553         0.418875      0.316871      0.003303
O       1.97284     15.25827      2.73761         0.028269      1.521210      0.319852
O       1.77432     15.33640     15.89582         1.159959      0.974981     -0.907238
O      13.50333      3.75244      2.67558        -0.274012      0.461098      0.102012
O      13.36475      3.80436     15.89185        -0.374234     -0.437116      0.321394
O      13.47553      0.00705      2.74919        -0.780117     -1.517644      0.087468
O      13.48313     15.31691     15.74321        -0.599460     -0.125703      0.610407
O       1.96925      3.83490      7.20594        -1.176331      0.852731     -0.983676
O       1.91640      0.06630      7.10929        -0.098718     -1.140514     -0.115371
O      13.43996      3.85811      6.98042         0.125431     -0.695907      0.932575
O      13.40517     15.34674      7.21339        -0.322456      0.278338     -0.778068
O       1.76714      3.83176     11.49909         0.925008      0.251677     -0.739795
O       1.83175      0.05186     11.53048         0.549465      0.281093     -0.368922
O      13.39433      3.76802     11.45528        -0.264914      1.602718      0.080315
O      13.32819      0.00664     11.57577        -0.163863     -0.318217     -0.277099
O       1.82989      7.69391      2.72056         0.108493      0.279693      0.140204
O       2.00232      7.63919     15.78890        -0.112678      0.342888      0.219847
O      13.52352      7.65795      2.75291        -0.725845      0.579362     -0.183543
O      13.19788      7.60884     15.74442         0.487167      0.589970      0.749732
O       1.99887      7.72375      7.03687        -0.539393     -0.006848     -0.703086
O      13.54324      7.68518      7.06574        -0.481473     -0.085947     -0.192797
O       1.80402      7.69290     11.46305         0.356698      0.476537      0.020728
O      13.39007      7.64590     11.39777         0.742009     -0.012356      0.268730
O       2.03910     11.45088      2.60008         0.497368      0.606929      0.303451
O       2.04310     11.59591     15.62861        -0.499071     -1.656602      0.486926
O      13.38756     11.52960      2.75935         0.350617     -0.191077      0.028912
O      13.52270     11.52923     15.85880        -0.282597     -1.434108      0.389011
O       1.87622     11.60512      7.18792         0.379025     -0.833385     -0.393388
O      13.46263     11.49566      7.02812        -0.191782      0.337933      0.481038
O       2.00757     11.53482     11.35955        -0.236821     -0.279542      0.248912
O      13.37355     11.50090     11.52526         0.347061     -0.420860     -0.103387
O       5.63009      3.77211      2.78101         0.793614      0.575352     -0.485488
O       5.89780      3.75886     15.81468        -0.510928      0.648210     -0.013444
O       5.76889     15.34275      2.83420        -0.387957      0.376257     -0.117182
O       5.69794     15.30557     15.63828        -0.152074      0.307387      0.215977
O       5.72958      3.91298      7.11873        -0.470507     -0.144243     -0.233802
O       5.77661      0.07548      7.11586        -0.325981     -0.069398     -0.028379
O       5.86980      3.89976     11.36042        -0.698905     -0.204981      0.503621
O       5.78516      0.04901     11.46384        -0.054347     -0.331392     -0.287432
O       5.73024      7.55447      2.84953         0.449782      1.187518     -0.238900
O       5.62006      7.61251     15.91449         0.474478      0.678813     -0.760063
O       5.52592      7.64068      6.91470         0.295403      0.526990      0.011074
O       5.78966      7.69677     11.59411        -0.298076     -0.341387     -0.418187
O       5.65038     11.52544      2.68403         0.317700      0.118170      0.072455
O       5.66936     11.52903     15.81175         0.190070     -0.859787     -0.446676
O       5.82139     11.48800      7.11908         0.039986      0.604625      0.532542
O       5.74122     11.49087     11.32756        -0.200636      0.002338     -0.366561
O       9.49452      3.82663      2.66792         0.325673     -0.302519      0.144664
O       9.38773      3.75352     15.77523         0.266122      0.562960     -0.183084
O       9.72236      0.02672      2.83197        -0.575622     -1.886030     -0.072349
O       9.52809     15.20971     15.75876         0.094228      1.484369      0.462453
O       9.52334      3.85904      7.19394         0.056660      1.210387      0.168854
O       9.53468      0.03395      7.03827         0.340889     -0.075639      0.476679
O       9.69275      3.88703     11.24042        -0.678149     -0.380752      0.579541
O       9.66258     15.35606     11.47114        -0.433853     -0.764782     -0.248857
O       9.65663      7.64004      2.78751        -0.163282      0.459046     -0.297827
O       9.54935      7.76793     15.79428         0.694302     -1.427139      0.536422
O       9.60121      7.70223      7.03440        -0.104729     -0.136414      0.005962
O       9.62216      7.68500     11.62152        -0.890964     -0.042274     -0.717829
O       9.48752     11.51714      2.68678         0.313703     -0.245507      0.160391
O       9.52127     11.52193     15.86114        -0.343405     -0.068300      0.361889
O       9.68526     11.51870      7.11584        -1.420907     -0.926468     -0.151167
O       9.55539     11.47645     11.48795         0.131308      0.131639     -0.589721
