  # total energy = -7880.19920839 
CRSYTAL
PRIMVEC
    15.6000000000000000    0.0000000000000000    0.0000000000000000
     0.0000000000000000   15.6000000000000000    0.0000000000000000
     0.0000000000000000    0.0000000000000000    17.640000000000000
PRESSURE
-4.04482 -4.55717 -3.64053 0.143901 -0.53533 -0.03468
PRIMCOORD
320 1
Pb       3.92052      3.91550      4.26856        -0.330612     -0.179032      0.646814
Pb       3.79275      3.72159     17.56169         0.179126      0.079708     -0.190544
Pb       4.04496      0.09392      4.39809        -0.222760     -0.720987     -0.140387
Pb       4.00014     15.52675     17.49525        -0.451538      0.602767      0.571990
Pb       0.00291      3.87295      4.30503        -0.184128     -0.233414     -0.136895
Pb      15.50714      3.78134     17.57125         0.513891      0.210518     -0.205564
Pb       0.00173     15.59654      4.31439        -0.265470      0.090186      0.134249
Pb       0.17230     15.51222     17.59528        -0.566194      0.371372     -0.083939
Pb       3.92655      3.81957      8.73027        -0.086080      0.086621      0.244355
Pb       3.86131     15.58517      8.74792         0.069993      0.105206      0.335074
Pb       0.04197      3.78585      8.67839        -0.060284      0.268913      0.698285
Pb       0.06799     15.58171      8.94145        -0.571273      0.313907      0.087014
Pb       3.71255      4.08775     13.08109         0.203967     -0.253329      0.548722
Pb       3.87463      0.05305     13.20075        -0.340980      0.035649     -0.219868
Pb      15.51953      3.82058     13.23171         0.395408      0.330253      0.285995
Pb       0.00586      0.00440     13.14656         0.071751     -0.138026      0.188197
Pb       3.82627      7.80271      4.16476         0.215873     -0.232552      0.748256
Pb       3.74748      7.80925     17.55779         0.406447     -0.299937      0.666882
Pb      15.49499      7.70630      4.42764         0.092664     -0.076763      0.027136
Pb      15.43165      7.77152      0.01476         0.588234     -0.105589      0.116583
Pb       3.81810      7.76238      8.75246         0.629127     -0.109767      0.388321
Pb       0.07218      7.79437      8.62967        -0.434088     -0.365344      1.284406
Pb       3.86168      7.90611     13.17445         0.210372     -1.329265     -0.044566
Pb      15.39137      7.82744     13.18622         0.352667      0.009127     -0.205740
Pb       3.89754     11.61972      4.30132         0.113557      0.382646     -0.173199
Pb       3.91431     11.64613     17.54440        -0.227341     -0.301301      0.117475
Pb      15.59233     11.59065      4.40396        -0.046754      0.711716      0.198649
Pb      15.59425     11.55545      0.11731        -0.111648      0.208410     -0.259975
Pb       3.91254     11.71448      8.63378        -0.359579     -0.097613      0.620460
Pb       0.04021     11.55135      8.78570        -0.297590      0.305666      0.192516
Pb       3.92755     11.56191     13.23223        -0.064904      0.531391     -0.059837
Pb       0.13729     11.59827     13.24615        -1.246412      0.106530     -0.279877
Pb       7.81829      4.04019      4.29599         0.097771     -0.197604      0.125061
Pb       7.85377      3.79632     17.49204        -0.714477      0.746785      0.805114
Pb       8.00338     15.59992      4.34486        -0.722885     -0.195164     -0.157313
Pb       7.87850     15.39888     17.61706        -0.273673      0.843704      0.305949
Pb       8.03175      3.89924      8.66887        -0.655852     -0.126958      0.340987
Pb       7.75370     15.52853      8.65372        -0.155737      0.392970      0.271705
Pb       7.61872      3.82650     13.04876         0.176058      0.206016      0.710068
Pb       7.70954     15.47393     13.17877         0.219203      0.260146      0.051584
Pb       7.66185      7.84211      4.32843         0.262153     -0.173615     -0.267196
Pb       7.81630      7.78246     17.48794        -0.055608     -0.228479      1.032876
Pb       7.89144      7.80443      8.75344        -0.619232     -0.104265      0.063039
Pb       7.86090      7.67615     13.15817        -0.655644      0.182862      0.380530
Pb       7.73434     11.69352      4.33048         0.157981      0.150953      0.179133
Pb       7.76641     11.75074     17.61842         0.197829     -0.751253      0.721361
Pb       7.74734     11.63594      8.80337        -0.180896      0.059753     -0.261682
Pb       7.78014     11.51240     13.21548         0.507425      0.280711      0.080979
Pb      11.57914      3.94126      4.32868         0.114442      0.324934     -0.169442
Pb      11.66877      3.96450     17.49262        -0.212683      0.143069      0.455846
Pb      11.79196      0.05083      4.35907        -0.134425     -0.457519     -0.002165
Pb      11.80278      0.03407     17.51284        -0.138811     -0.244128      0.382865
Pb      11.73598      3.90188      8.76045        -0.878819      0.346141      0.496939
Pb      11.58213     15.52427      8.81734         0.300939      0.417770     -0.072631
Pb      11.58332      3.88580     13.19709         0.449314      0.065741      0.136960
Pb      11.74393      0.00967     13.21300        -0.128759      0.072571      0.393672
Pb      11.65267      7.85670      4.35586        -0.456286     -0.237880      0.203484
Pb      11.82148      7.89086     17.60520        -1.169371     -0.154876      0.426105
Pb      11.82133      7.75756      8.77357        -0.391581      0.019374      0.044450
Pb      11.66505      7.87167     13.20245         0.445553     -0.286839     -0.093568
Pb      11.74819     11.80932      4.53232        -0.535110      0.080238     -0.204710
Pb      11.60188     11.81009      0.08897         0.332833     -0.558671     -0.201586
Pb      11.58127     11.75631      8.76413         0.354213     -0.430181      0.186349
Pb      11.82384     11.69417     13.23055        -0.103312     -0.068643      0.037689
Ti       1.96569      1.87868      2.39539        -0.080682     -0.167549     -0.814002
Ti       1.93852      1.88895     15.52125        -0.099484      0.506881     -1.585423
Ti       1.87356     13.62781      2.38761         0.320914      0.250233      0.209870
Ti       1.97006     13.53343     15.59171        -0.930076      0.233761      0.374137
Ti      13.55994      1.97324      2.31689         1.013047     -0.241198     -1.092381
Ti      13.59270      1.97295     15.69477         0.713473     -0.908824     -0.869352
Ti      13.57814     13.64624      2.39537         0.323890      0.159986     -0.586428
Ti      13.78629     13.64796     15.60658        -1.233924      0.198247      1.395375
Ti       1.88495      1.91268      6.73513        -0.172219      0.188629     -0.623688
Ti       1.73570     13.70898      6.91168         0.859253     -0.759914     -0.922059
Ti      13.44957      1.97915      6.78903         1.226688     -0.852903     -1.839580
Ti      13.57014     13.68296      6.97603        -0.663567      0.177907     -1.190015
Ti       1.93066      1.94204     11.19170         0.041021      0.136327      0.588752
Ti       1.92633     13.55150     11.23452        -0.856367      0.181327      0.491754
Ti      13.63954      1.99680     11.24858        -0.571931     -0.142474      0.023542
Ti      13.56937     13.74148     11.23679         0.657028     -1.919666     -0.285430
Ti       1.92266      5.81725      2.31022        -0.956871      0.042978     -0.704000
Ti       1.91737      5.84019     15.65127        -0.972082     -1.301972     -0.500665
Ti      13.64168      5.85123      2.36646        -0.653027      0.018738     -0.616914
Ti      13.66772      5.86473     15.64063        -0.646442      0.192580     -0.647628
Ti       2.01360      5.81464      6.75104        -0.632516     -0.715805     -0.793014
Ti      13.70967      5.81740      6.87993        -1.107936      0.041282      1.502202
Ti       1.84957      5.87862     11.17405         0.429142      0.290339     -0.689178
Ti      13.64790      5.86227     11.21002        -0.342110      0.354906      0.543215
Ti       1.81604      9.71670      2.46537         0.160028     -0.153882     -1.361977
Ti       1.86298      9.65839     15.62041        -0.714546      0.397471     -0.065409
Ti      13.56914      9.78858      2.58994        -0.591250     -0.537531     -0.877700
Ti      13.57239      9.88840     15.69215        -0.007164     -0.158901     -0.606168
Ti       1.95552      9.69694      6.72277         0.186791      0.646038     -0.830012
Ti      13.62924      9.70357      6.80363        -1.648984      0.077814     -1.122241
Ti       1.91384      9.67708     11.19016        -1.137814     -0.056235      0.956756
Ti      13.59732      9.79877     11.08801         1.078936      0.322569      1.287078
Ti       5.88429      1.96456      2.32252        -0.070737     -1.141815      0.566911
Ti       5.82754      1.90474     15.50038         0.074561      0.763556      0.152281
Ti       5.78331     13.65021      2.27944        -0.153946      0.349895      0.734614
Ti       5.85545     13.56535     15.62679        -0.216658      0.273249     -0.924892
Ti       5.81199      1.90607      6.75643        -0.035024      0.257662     -0.541965
Ti       5.74538     13.62490      6.78824         0.312127     -0.067976     -1.113455
Ti       5.77094      1.94174     11.12825        -0.406806     -0.352580      0.626621
Ti       5.79884     13.61581     11.23224        -0.318713      0.179396      0.397674
Ti       5.81769      5.75740      2.26675         0.239730      0.632797     -0.694218
Ti       5.69485      5.79809     15.68799         1.055035     -0.028029     -0.749865
Ti       5.77682      5.75210      6.72507         0.866273      0.208659     -0.513218
Ti       5.87656      5.77175     11.03947        -1.625542      1.828874     -0.710666
Ti       5.80109      9.75499      2.27296         0.398698     -0.291386     -0.220665
Ti       5.80753      9.65521     15.62683        -0.057654     -0.246784      0.175439
Ti       5.83179      9.70164      6.77176        -0.017216      0.017716     -0.942633
Ti       5.84706      9.72272     11.22698         0.169324     -1.007871      1.059786
Ti       9.78041      1.99515      2.31161        -0.453711      0.030197      1.229248
Ti       9.59876      1.88560     15.56030         1.264925     -0.092575      1.206122
Ti       9.66332     13.64356      2.37137         0.791614     -0.315606      0.865057
Ti       9.81738     13.56547     15.65407         0.259594      0.381721     -0.086608
Ti       9.67115      1.98524      6.64398         0.022067     -0.034484      1.552059
Ti       9.61614     13.64630      6.85180         0.152112     -0.547693     -2.627514
Ti       9.66895      1.85421     11.21536         0.715796      0.225288     -0.732238
Ti       9.72567     13.61428     11.22332        -0.010903     -0.379959      1.255478
Ti       9.74250      5.90293      2.28781         0.358328      0.114288     -0.373626
Ti       9.67178      5.83929     15.57153         0.080145      0.173500      0.006807
Ti       9.70085      5.90030      6.77408         0.781321     -0.254373     -2.249664
Ti       9.72703      5.75896     11.24588         0.901760      0.683851     -0.327604
Ti       9.65977      9.78678      2.38520         0.117134      0.066959     -0.599280
Ti       9.63164      9.70636     15.59384         1.970996      0.661816     -0.095236
Ti       9.70263      9.71165      6.78885         0.545153      0.201075     -0.531971
Ti       9.79668      9.71009     11.18278        -0.193699      0.292859      1.865295
O       2.12262      1.83674      0.59053        -0.273645      0.324083      1.149540
O       1.96036      1.98187     13.66275        -0.188436     -0.396528      1.715913
O       1.77287     13.67386      0.65613         0.392518     -0.290140     -0.322410
O       1.93324     13.46565     13.86435        -0.048695      0.156409     -0.060517
O      13.67536      1.91510      0.49241        -0.178702      0.369784      1.216731
O      13.67847      1.93729     13.93490         0.021095     -0.117177     -0.515003
O      13.69410     13.56905      0.64186        -0.360345     -0.058474      0.850792
O      13.65731     13.62613     13.89981        -0.024646      0.229010     -1.028799
O       1.86957      1.84338      4.93230        -0.035903      0.269322      1.438259
O       1.68689     13.70467      5.16825         0.258499      0.045356      0.585645
O      13.52298      1.94840      4.94859        -0.282415      0.108423      1.658607
O      13.43701     13.70965      5.18750         0.311310     -0.321993      0.772331
O       1.83714      1.92954      9.41778         0.186242     -0.072756      0.348619
O       1.76654     13.76640      9.49325         0.383849     -0.469803     -0.472583
O      13.62509      1.90732      9.50657        -0.213421      0.355184      0.372844
O      13.43476     13.74450      9.44948         0.190085      0.036539      0.111243
O       1.81491      5.88130      0.52044         0.339208     -0.260172      1.100551
O       1.89133      5.66001     13.87420         0.114334      0.614680      0.831993
O      13.59038      5.89638      0.58511         0.187303     -0.081567      0.773400
O      13.63902      6.09501     13.88083         0.036752     -0.419962      0.516143
O       1.91503      5.79183      4.95036         0.117132     -0.099111      2.132513
O      13.68730      5.81296      5.19678        -0.047613     -0.166601     -1.422370
O       1.90178      5.87596      9.36516        -0.021659      0.182357      1.073576
O      13.60868      5.78355      9.46169        -0.048826      0.069029     -0.160695
O       1.74710      9.75764      0.66591         0.335364     -0.309700      1.042456
O       1.78851      9.77117     13.85624         0.290923     -0.286161      0.756870
O      13.54224      9.87661      0.79988         0.231506     -0.454654      0.492010
O      13.56943      9.92628     13.91645         0.059122     -0.692804      0.680900
O       1.94635      9.69869      4.93427        -0.059800      0.253271      1.286721
O      13.60313      9.56094      4.98248        -0.037676      0.653462      1.265989
O       2.02797      9.69933      9.47348        -0.264894     -0.091540     -1.524311
O      13.50847      9.75972      9.36465         0.272238      0.085608     -0.941740
O       5.76747      1.89404      0.57837        -0.002824      0.457750      0.597201
O       5.84518      2.07240     13.72556         0.278662     -0.462361      0.567906
O       5.85511     13.55067      0.51603        -0.299402      0.205966      0.004175
O       5.71159     13.56292     13.84789         0.546700      0.215893      1.373710
O       5.73049      1.89296      4.99965         0.116862     -0.194551      0.620223
O       5.73969     13.54315      5.01456        -0.140335      0.115112      0.541019
O       5.64169      1.94896      9.38400         0.371491     -0.254488      0.395850
O       5.73006     13.70006      9.48274         0.173227     -0.247097      0.445547
O       5.73362      5.74812      0.50734         0.036459     -0.016591      1.037100
O       5.75957      5.88069     13.89576         0.047037     -0.270662      1.247663
O       5.79565      5.68147      4.91767        -0.112912      0.498240      1.436143
O       5.81618      5.90579      9.24297         0.242905     -0.302240      1.196192
O       5.86917      9.75127      0.49431        -0.389901      0.099646      1.433812
O       5.78985      9.68874     13.85192         0.003707     -0.006813      0.484855
O       5.81819      9.70658      4.97362        -0.131229      0.392036      0.877402
O       5.85532      9.76569      9.50053        -0.077773      0.160103     -0.127851
O       9.83998      2.07596      0.60923        -0.316967     -0.264806     -0.513139
O       9.60629      1.94080     13.84681        -0.011545      0.016202     -0.611693
O       9.64657     13.78005      0.63271         0.174677     -0.454220     -0.507685
O       9.69848     13.47092     13.90238        -0.081654      0.355313      0.814135
O       9.67389      2.12093      4.93949         0.060988     -0.365788     -0.936864
O       9.70875     13.53615      5.00792        -0.259039      0.247320      1.963779
O       9.74307      1.95289      9.42310        -0.169146     -0.366661      1.208486
O       9.76986     13.65973      9.47239        -0.401743      0.229255     -0.316169
O       9.95001      5.83527      0.51920        -0.529925      0.215412      0.912122
O       9.46878      5.81064     13.77703         0.744346     -0.191231      0.857758
O       9.65512      5.82570      4.91136         0.217080      0.017389      2.085598
O       9.75493      5.84581      9.45802        -0.351829     -0.150880      1.029631
O       9.65294      9.83337      0.62507         0.162223     -0.466239      0.628918
O       9.73686      9.87216     13.80580        -0.114682     -0.271652      1.200740
O       9.62131      9.69456      5.04144        -0.181205      0.102215      0.247820
O       9.66521      9.64405      9.47230        -0.006675      0.051492     -0.648330
O       3.86004      1.84027      2.94693        -0.230883      1.004728     -1.013967
O       3.98445      1.92584     15.88546        -0.500572      0.042429      0.256236
O       3.80479     13.70608      2.67959         0.237124     -0.717053      0.182253
O       3.86521     13.61080     16.02966         0.486121     -0.796750      0.031226
O      15.48282      1.82636      2.79527         0.106092      0.742709     -0.295207
O       0.10117      1.87699     15.92211        -0.435009      0.085945      0.442267
O      15.51244     13.63616      2.82404         0.076604     -0.243757      0.297824
O      15.59477     13.67860     16.07378         1.518938     -0.154526     -0.335978
O       3.81072      1.85918      7.22520         0.169490     -0.245081     -0.427312
O       3.87703     13.71698      7.31061        -0.945537     -0.058456     -0.406900
O      15.45265      2.07442      7.12084         0.830369     -0.428848     -0.115945
O      15.47474     13.60431      7.40935         0.032607      0.241059     -0.257884
O       3.81111      2.02569     11.69292         0.757209     -0.380760     -0.928806
O       3.77407     13.49435     11.72178         0.736059      0.094697     -0.496867
O       0.03868      1.93042     11.62643        -1.137270      0.004540     -0.071118
O      15.46753     13.54751     11.67749         0.740484      0.929708     -0.210582
O       3.78943      5.81010      2.67037         0.393239     -0.243555      0.088727
O       3.81407      5.91276     16.08973         0.344852     -0.516089     -0.293422
O      15.54157      5.84506      2.81539        -0.282509      0.011143     -0.025523
O      15.54360      5.82691     16.07431         0.607509      0.085475     -0.008940
O       3.94111      5.86200      7.22086        -1.139440      0.185527     -0.534860
O      15.59238      5.78732      7.28153         0.840133     -0.144115     -0.543290
O       3.86828      5.93647     11.51385        -0.199504     -0.456600      0.016503
O      15.51923      5.96215     11.71646         0.237533     -0.713828     -0.562076
O       3.83042      9.73562      2.74850         0.336021      0.055747     -0.178665
O       3.84092      9.67569     15.99426        -0.195941      0.252178     -0.026504
O      15.48696      9.73795      2.96229         0.821942     -0.171600     -0.389258
O      15.51198      9.76445     16.18803         0.225943     -0.960356     -0.491798
O       3.81392      9.73819      7.14052        -0.039496      0.265281     -0.007949
O      15.46798      9.72863      7.12738         2.050870      0.372320      0.237333
O       3.76186      9.66893     11.73691         1.227652      1.012381     -0.540933
O      15.54482      9.73217     11.55809        -0.466283     -0.200624     -0.055306
O       7.75016      1.95794      2.83675         0.276706     -0.081009     -0.674491
O       7.80401      1.93571     16.04856        -0.533722     -0.055460     -0.384270
O       7.80712     13.66737      2.82828        -1.337633      0.167021     -0.238780
O       7.74055     13.62120     16.17106        -0.043194     -0.049586     -1.154404
O       7.76374      2.03409      7.19193        -0.280447     -0.027403     -0.167782
O       7.64428     13.58436      7.20001         1.402186      0.009954      0.481837
O       7.78562      1.82384     11.50742        -0.597935      0.447822      0.054302
O       7.67299     13.74982     11.63595         0.710103     -0.368232     -0.335272
O       7.73927      5.78310      2.57205        -0.439804     -0.162863      0.238967
O       7.78505      5.90027     16.11117         0.160319     -0.125362     -0.503602
O       7.81695      5.77179      7.10881        -0.846983      0.165821      0.264787
O       7.71367      5.89961     11.55926         0.687867     -0.270558     -0.297117
O       7.70669      9.79940      2.84871        -0.956607     -0.701536     -0.385643
O       7.83008      9.65626     16.06051        -0.833551      0.471935     -0.702134
O       7.70798      9.80124      7.27921         0.413276     -0.324872     -0.080319
O       7.81835      9.60791     11.76633        -0.384619      0.845607     -1.034163
O      11.65071      1.89285      2.79113         0.026273      0.498682     -0.179053
O      11.73066      1.82319     15.95770        -0.969322      0.851247     -0.083914
O      11.65229     13.54671      2.88546         0.040376     -0.131967     -0.356555
O      11.71764     13.67961     16.04477        -0.526665     -0.396954     -0.065130
O      11.52174      1.91649      7.11469         0.874391     -0.050663      0.166032
O      11.50588     13.67533      7.33913         0.426177     -0.084273     -0.155263
O      11.68140      1.94638     11.75552         0.203226     -0.142134     -0.406261
O      11.65615     13.65063     11.64376        -0.295739      0.211901      0.043171
O      11.65882      5.91626      2.79630         0.185862     -0.110309      0.076261
O      11.71499      5.72451     16.02126        -0.439925      0.546234     -0.710653
O      11.63485      5.91799      7.28407         0.350592     -0.262061     -0.282907
O      11.65241      5.85677     11.72044        -0.466130     -0.128045     -0.223208
O      11.55708      9.81031      2.87169         0.436763     -0.512072      0.072530
O      11.66481      9.90286     16.14839         0.084389     -0.547685     -0.262227
O      11.65418      9.58008      7.12034        -0.142904      0.412707      0.189289
O      11.78479      9.83765     11.66269        -2.036416     -0.679321     -0.294425
O       1.74576      3.91344      2.71969         0.755525     -0.772791     -0.142766
O       1.95989      3.78426     15.97107         0.180122      0.648927      0.509407
O       1.85814      0.01453      2.77808        -0.131280     -0.549792      0.092064
O       2.03319     15.59518     15.98653        -0.018048     -0.949653     -0.255368
O      13.56098      3.91473      2.65077         0.123248     -0.356602      0.376041
O      13.76803      3.89459     15.94748        -0.434843     -0.262354      0.300098
O      13.50171     15.56566      2.68669         0.046041     -0.061932      0.343565
O      13.67972     15.56633     16.12009         0.214735      0.017246     -0.371540
O       2.04411      3.84802      7.25977        -0.545392      0.451553     -0.789652
O       1.77958      0.05534      7.33194         0.119364     -0.473870     -0.435070
O      13.49954      3.86448      7.35808         0.371940      0.067399     -0.836652
O      13.48048      0.03489      7.20132         0.200899     -0.051960      0.357178
O       1.86313      3.95607     11.61546        -0.136658     -0.194570     -0.535905
O       1.96732     15.51437     11.63385        -0.231340      0.462288     -0.006313
O      13.58409      3.97846     11.78842         0.226943     -1.107356     -0.625774
O      13.62401      0.01867     11.64207         0.080353      0.523780      0.178287
O       1.82502      7.77821      2.90380         0.214244     -0.012200     -0.788620
O       1.89388      7.70162     16.07729        -0.314741      1.333950     -0.481302
O      13.62939      7.73934      3.00328        -0.229466      0.315008     -0.879474
O      13.57613      7.73128     16.24034         0.362051      1.119952     -1.075114
O       1.91201      7.76465      7.21752         0.172898      0.180189     -0.757105
O      13.70375      7.77676      7.29359        -0.215343     -0.240528     -0.214161
O       1.84243      7.76744     11.69809         0.216766      0.020105     -0.283340
O      13.60389      7.81147     11.56526        -0.444594      0.290236      0.119992
O       1.88917     11.63850      2.77243        -0.222026      0.590853      0.443107
O       1.78818     11.55540     16.08385         0.979618      1.215459     -0.181141
O      13.61060     11.61110      3.05687         0.028336      1.160464     -0.284206
O      13.72205     11.69958     16.06052        -0.299160      0.633735      0.211682
O       1.90236     11.71548      7.19656        -0.234310     -0.508094      0.102441
O      13.47460     11.67192      7.29429         0.333426      0.198500     -0.402626
O       1.70824     11.59466     11.57185         1.273374      0.761599     -0.240209
O      13.55818     11.71398     11.67422         0.326348      0.072328     -0.714479
O       5.75242      3.81654      2.92004         0.138149      0.601372     -1.355279
O       5.90094      3.88262     16.07023        -0.417252     -0.081632     -0.551113
O       5.72639     15.53550      2.68294         0.539836      0.396599      0.168458
O       5.84296      0.01897     16.04569         0.276743     -1.038201     -0.836711
O       5.67780      3.84704      7.07533         0.341341      0.470236      0.186325
O       5.92440     15.58795      7.16956        -0.590859      0.230322      0.070345
O       5.80677      3.93295     11.45435         0.284377     -0.673714     -0.096185
O       5.75370      0.03582     11.69383        -0.390287     -0.253961     -0.413136
O       5.69336      7.71615      2.78550         0.774438      0.445072     -0.773619
O       5.81997      7.79488     16.24531        -0.251782     -0.123212     -1.041607
O       5.80228      7.89562      7.15651         0.161475     -1.169302     -0.051727
O       5.72925      7.82335     11.63898         0.434063      0.092772     -0.408585
O       5.76941     11.72627      2.71691        -0.174275     -0.560034     -0.021902
O       5.89415     11.54436     16.05329        -0.536883      1.278587     -0.385259
O       5.82951     11.74365      7.30651        -0.539411     -0.816436     -0.255926
O       5.86878     11.70486     11.78910        -0.372833     -0.679971     -0.939359
O       9.74785      3.95321      2.79080         0.031635     -0.534968     -0.323186
O       9.66836      3.98528     16.11419         0.488279     -1.241384     -1.033940
O       9.70246     15.56352      2.78855         0.240916      0.897870     -0.020929
O       9.71002      0.00878     16.15652        -0.129073     -0.249913     -0.956282
O       9.80276      3.92078      7.17369        -0.264280     -0.020491     -0.014466
O       9.51413     15.58333      7.00790         0.264693      0.068425      0.304963
O       9.79097      3.83475     11.63037        -0.830075      0.280049     -0.295095
O       9.78417     15.53190     11.85071        -0.491900      0.395473     -0.992141
O       9.54273      7.76757      2.85532         0.514183      0.416161     -0.605407
O       9.78938      7.83324     15.92487         0.136120     -0.295821     -0.106451
O       9.69599      7.78964      7.21687        -0.539597     -0.176907      0.032108
O       9.79559      7.80672     11.75213        -0.163713     -0.146858     -0.748578
O       9.51446     11.69770      2.69660         0.620630      0.054491      0.182279
O       9.71967     11.73491     16.33769        -0.250228      0.120642     -1.532690
O       9.67147     11.62535      7.21585         0.104016      0.528031      0.334728
O       9.65436     11.71259     11.61748        -0.085608     -0.246623     -0.487036
