  # total energy = -7884.75951555 
CRSYTAL
PRIMVEC
    15.3600000000000000    0.0000000000000000    0.0000000000000000
     0.0000000000000000   15.3600000000000000    0.0000000000000000
     0.0000000000000000    0.0000000000000000    17.440000000000000
PRESSURE
0.442552 0.406599 -0.554987 0.279325 0.40298 -0.020519
PRIMCOORD
320 1
Pb       3.81051      3.75441      4.38200         0.282297      0.298878     -0.021627
Pb       3.82351      3.73328     17.40579         0.009264      0.299238     -0.198673
Pb       3.76414     15.29249      4.40609        -0.005342      0.036954     -0.693903
Pb       3.71181     15.30044     17.32981         0.439613     -0.003648     -0.156825
Pb       0.06719      3.73622      4.33922        -0.384829      0.142599     -0.004470
Pb       0.12619      3.85825      0.03191        -0.508997     -0.046603     -0.426592
Pb       0.06171     15.29959      4.29281        -0.199855     -0.028499     -0.165641
Pb      15.20102     15.26010     17.42496         0.147934      0.010134      0.180233
Pb       3.72569      3.84170      8.75268         0.075716      0.197127     -0.538361
Pb       3.84745      0.02550      8.70286         0.094299     -0.020498     -0.256304
Pb      15.19697      3.97563      8.70071         0.380608     -0.193226     -0.021083
Pb      15.19410      0.08224      8.77127         0.063708     -0.070725     -0.820320
Pb       3.79353      3.76073     12.94082        -0.066444     -0.248288      0.154731
Pb       3.70663     15.33828     12.89585         0.596686      0.357373      0.332618
Pb       0.04068      3.71851     13.11985        -0.301690      0.344782     -0.815394
Pb      15.34896     15.29491     13.02233        -0.217698      0.157905     -0.198627
Pb       3.83689      7.64328      4.31934         0.149886      0.084605      0.287074
Pb       3.72436      7.53608     17.36581         0.249329      0.571982      0.162841
Pb       0.11154      7.79942      4.31160        -0.432392     -0.493737     -0.014762
Pb      15.19158      7.62783     17.38213         0.547104      0.278211      0.079774
Pb       3.85658      7.71966      8.72928        -0.200627     -0.149344     -0.885015
Pb      15.34042      7.66375      8.71307         0.403823     -0.111366     -0.539001
Pb       3.78836      7.55520     12.97759         0.214066      0.779483      0.190025
Pb       0.00326      7.58577     13.14551        -0.194465      0.139018     -0.564308
Pb       3.76623     11.54336      4.32202        -0.165964     -0.206361     -0.140344
Pb       3.87158     11.49299     17.34555        -0.292466     -0.082913     -0.120896
Pb      15.30782     11.58843      4.29645         0.409586      0.088435      0.117780
Pb      15.22430     11.53498     17.30826         0.240828     -0.148825      0.173852
Pb       3.82160     11.53309      8.72046         0.568266     -0.171658     -0.144317
Pb      15.26599     11.42000      8.75434        -0.184532      0.323489     -0.782211
Pb       3.84854     11.43561     12.97216         0.422296      0.001351      0.462175
Pb       0.14326     11.52066     13.08049        -0.288535     -0.073083     -0.070625
Pb       7.72810      3.66483      4.36008        -0.563702      0.565620     -0.268514
Pb       7.56644      3.82041      0.01393         0.308111     -0.164166     -0.361181
Pb       7.75797     15.29923      4.39805        -0.524496     -0.418773     -0.131384
Pb       7.55432     15.33333     17.40050         0.228657      0.196017     -0.328644
Pb       7.65325      3.86680      8.65566        -0.023434     -0.227970     -0.085043
Pb       7.64955     15.31881      8.65434        -0.031204      0.163525      0.106669
Pb       7.81506      3.96623     13.11251        -0.009314     -0.317767     -0.509821
Pb       7.56020      0.18194     12.98114         0.694421     -0.459432     -0.339521
Pb       7.70714      7.54707      4.31417        -0.146188      0.434853     -0.093481
Pb       7.53144      7.71838     17.42531         0.321382     -0.050629     -0.521737
Pb       7.66239      7.72674      8.68899         0.280301      0.061838     -0.508501
Pb       7.60652      7.67269     12.96767         0.445485      0.049969      0.136678
Pb       7.70665     11.43835      4.38295        -0.074631      0.069221     -0.291779
Pb       7.58604     11.54134     17.40425         0.434639     -0.273179     -0.124069
Pb       7.63641     11.55201      8.67399         0.301127     -0.037911     -0.666837
Pb       7.72041     11.51588     12.97232         0.008598      0.223482      0.037931
Pb      11.43998      3.73447      4.27424         0.636624      0.565610      0.116223
Pb      11.63351      3.80450      0.07155        -0.131519     -0.122734     -0.695336
Pb      11.52471     15.22708      4.32964         1.075442      0.292662      0.736027
Pb      11.34930     15.25160      0.04992         0.572610      0.318164     -0.683576
Pb      11.39471      3.97921      8.68782         0.620751     -0.380421     -0.549910
Pb      11.45875     15.35094      8.67438         0.418340      0.235647     -0.237445
Pb      11.59361      3.71504     13.22136         0.170154      0.097149     -0.544398
Pb      11.54200     15.34011     13.00066        -0.340146     -0.128340      0.421652
Pb      11.47166      7.67406      4.22513         0.343110     -0.098180     -0.232448
Pb      11.49509      7.63062      0.04791        -0.153159      0.081954     -0.542610
Pb      11.52512      7.70010      8.68482        -0.051244     -0.235408     -0.227776
Pb      11.42916      7.62176     13.11252         0.303785     -0.090873     -0.135538
Pb      11.55884     11.43780      4.28538         0.061010      0.028352     -0.022675
Pb      11.34211     11.45561     17.40314         0.293802      0.131061     -0.263688
Pb      11.57880     11.51873      8.68512        -0.346116      0.128841     -0.339685
Pb      11.53888     11.46451     13.02699        -0.125983      0.127343     -0.249941
Ti       1.91367      1.92616      2.26179        -0.283366     -0.734006      1.765995
Ti       1.89947      1.87164     15.41366        -0.166681      0.382714     -1.389613
Ti       1.91638     13.37194      2.21964        -1.300195      0.818603      0.698484
Ti       1.89815     13.42409     15.34327         0.089797      0.268845     -0.502652
Ti      13.44451      1.87492      2.31722        -0.081091     -0.505687     -0.064823
Ti      13.42543      1.86691     15.51364        -0.713781      0.452020      0.226255
Ti      13.34549     13.33476      2.27801         1.461059      1.147250     -0.173817
Ti      13.41374     13.46977     15.29935        -0.978566      0.334258      0.232049
Ti       1.90326      1.88939      6.64382        -0.948881     -0.055476     -0.174817
Ti       1.95097     13.37866      6.74992        -1.351656      0.955050     -0.914165
Ti      13.49227      2.01301      6.66568        -0.651571     -0.731440     -0.174028
Ti      13.47602     13.45757      6.65939        -0.039723      0.204102      1.250621
Ti       1.86405      1.89996     10.94880         0.151486      1.140499      0.103497
Ti       1.96897     13.43085     10.91532        -0.572436      0.070689      1.935533
Ti      13.42719      1.88567     11.02114        -0.171172      0.893990      0.053185
Ti      13.50559     13.37149     11.04600        -1.160809      0.484835     -0.125289
Ti       1.94235      5.74348      2.32341        -0.788020      0.012161      0.326286
Ti       1.89814      5.74688     15.34218        -0.289962      0.012541      0.563375
Ti      13.48822      5.69051      2.29460         0.322385      1.059675      1.344035
Ti      13.46198      5.78415     15.32507        -0.771582     -0.934067      0.113836
Ti       1.93086      5.70506      6.57286         0.036551      0.834528      1.018935
Ti      13.49617      5.83161      6.59374        -0.669582     -0.939921      0.208141
Ti       1.96888      5.78648     11.02430        -2.117721     -0.811827     -0.190462
Ti      13.44179      5.77818     11.09815         0.460055     -0.722825     -0.301437
Ti       1.97985      9.56825      2.21183        -0.754627      0.934755      0.125462
Ti       1.95511      9.58043     15.42431        -0.389369      0.039525      0.229102
Ti      13.54500      9.52162      2.29377        -1.048126      0.514113      0.601195
Ti      13.39732      9.60022     15.36362         0.551048      0.089873      0.060358
Ti       1.94927      9.62010      6.77920         0.113665     -0.801336      0.594423
Ti      13.45954      9.55263      6.62097         0.529675      1.231511     -0.865124
Ti       1.94947      9.62424     11.00746         0.045345     -0.570275     -0.980316
Ti      13.52960      9.56846     11.10410        -0.795965     -1.009349      0.310660
Ti       5.72325      1.82998      2.38311        -0.091214      0.472405      1.657511
Ti       5.76781      1.90690     15.25058        -0.264679     -0.266297      0.881787
Ti       5.73063     13.36547      2.30691         0.105874      0.537627      1.450924
Ti       5.74868     13.43653     15.25415        -0.173097      0.205354     -0.812869
Ti       5.71499      1.95047      6.62540         0.143399      0.280073      0.362329
Ti       5.71380     13.47054      6.62015         0.561550     -0.089308      0.568412
Ti       5.75277      1.97842     10.98538         0.533506     -0.685331      0.961631
Ti       5.78478     13.42284     11.03652         0.407848      0.610179     -0.870874
Ti       5.74800      5.69450      2.31136        -0.178359     -0.401033      0.426143
Ti       5.72622      5.74500     15.40461         0.190437      0.027044      0.073132
Ti       5.76715      5.78283      6.72156        -0.445278     -0.037215      0.320762
Ti       5.77816      5.72990     11.01998         0.458648     -0.577360     -1.067351
Ti       5.75516      9.52492      2.34643         0.397228      0.398508      0.770475
Ti       5.74499      9.67631     15.32592         0.223894     -0.949263     -0.606354
Ti       5.80044      9.61500      6.66142         0.204981     -0.345322     -0.152945
Ti       5.81658      9.58441     11.03053        -0.508384      0.238555     -0.110611
Ti       9.59183      1.85945      2.38145         0.671324      0.030382     -0.702099
Ti       9.60436      1.99390     15.43657         0.633435     -0.853433     -0.393307
Ti       9.58240     13.46700      2.28785        -0.285680     -0.665127      0.586544
Ti       9.47054     13.48532     15.32506         1.312558      0.046969     -0.569639
Ti       9.58518      1.91700      6.66024         0.746997     -0.047329      1.257983
Ti       9.65026     13.43975      6.66660        -0.130095     -0.492457      0.121508
Ti       9.66485      1.98518     11.03316        -1.202895     -0.961668     -0.224611
Ti       9.61025     13.46452     11.06255         0.286687      0.362677      0.709457
Ti       9.59305      5.71941      2.21243        -0.156071      0.525613     -0.076881
Ti       9.57739      5.78032     15.49519         0.452717      0.033527      0.413156
Ti       9.59275      5.77096      6.59860        -0.109089      0.229890      1.300452
Ti       9.62433      5.78557     10.94110         0.623394      0.016037      0.708053
Ti       9.59256      9.66608      2.32621         0.366710     -0.558059     -0.991288
Ti       9.56187      9.57647     15.35255         0.008610      0.281631      1.188007
Ti       9.73614      9.55125      6.59592        -1.548029      0.550559      0.960223
Ti       9.67022      9.56795     10.95962         0.351584      0.684131     -0.554514
O       1.87479      1.98607      0.53916         0.369065     -0.076331     -1.697781
O       2.06425      1.89337     13.57762        -0.807196      0.065488      1.280340
O       1.84063     13.47787      0.46851         0.357514     -0.231883     -0.642558
O       1.86795     13.50117     13.52827         0.003432     -0.096989      0.974761
O      13.28555      1.97121      0.54029         0.714833     -0.091249      0.469030
O      13.36952      1.86554     13.76740         0.041544      0.173043     -1.117854
O      13.49816     13.42248      0.51006        -0.063112     -0.290061      0.039317
O      13.50821     13.55938     13.51286         0.150628     -0.248535      0.422030
O       1.80767      1.90161      4.82331         0.387875     -0.156331      0.885603
O       1.90896     13.34073      4.92410         0.646701      0.175835      0.691753
O      13.59029      1.94623      4.88310        -0.374610      0.049627      0.377533
O      13.38905     13.43708      4.92909         0.005489     -0.022193     -1.094484
O       1.90972      2.02519      9.19857         0.056501     -0.259103     -0.261806
O       1.87172     13.36282      9.22100         0.066996     -0.012976     -0.946391
O      13.46274      1.93859      9.24761        -0.011929      0.215130      0.562288
O      13.45437     13.41214      9.25655         0.181210     -0.173389      0.709102
O       1.98018      5.66738      0.56208        -0.088695      0.290004     -0.343998
O       1.82811      5.68626     13.57852         0.497493      0.361455     -0.264756
O      13.44538      5.82449      0.54827        -0.000013     -0.326732     -0.715270
O      13.44438      5.90934     13.54542         0.142031     -0.811317      0.588044
O       1.87837      5.77044      4.82279         0.278192      0.219815     -0.563482
O      13.40802      5.82128      4.86495         0.009613      0.019037     -0.292545
O       1.93565      5.61807      9.26447         0.008770      0.535199      0.251700
O      13.50086      5.69518      9.27577        -0.212263      0.389602      0.347936
O       2.06055      9.68418      0.46007        -0.049531     -0.162712      0.178872
O       1.98797      9.60570     13.65693         0.070084     -0.009293     -0.116320
O      13.54715      9.58008      0.53956        -0.257622     -0.022666     -1.018150
O      13.41513      9.58898     13.61695         0.163299     -0.045316     -0.103991
O       1.96503      9.65538      5.05756         0.038365      0.119463     -1.434897
O      13.50993      9.63330      4.82849        -0.333932     -0.247399      0.778409
O       1.96523      9.55716      9.16470        -0.155242      0.351188      1.487389
O      13.43281      9.54889      9.32674         0.232567     -0.051217     -0.090110
O       5.79052      1.82648      0.66385        -0.110762      0.023812     -1.078155
O       5.75237      1.89337     13.49734        -0.045207      0.343155      0.204219
O       5.77958     13.41116      0.57403        -0.144215      0.178536     -0.371368
O       5.85758     13.36053     13.47855        -0.300525      0.207686      0.047143
O       5.69593      2.02437      4.84801         0.313769     -0.608166      0.530496
O       5.67480     13.52987      4.86265        -0.127017     -0.305196     -0.361195
O       5.65800      1.90783      9.26736         0.031804      0.256206     -1.298808
O       5.78717     13.45399      9.21993         0.005857     -0.158055      0.900059
O       5.69851      5.77103      0.54520         0.107911     -0.176695     -0.285853
O       5.79153      5.65683     13.65085        -0.068864      0.187002     -0.428180
O       5.74228      5.83290      4.98018         0.009724      0.157942     -0.716133
O       5.80169      5.65417      9.23699        -0.341233      0.442104      0.646802
O       5.84072      9.63904      0.60413        -0.221151     -0.325892     -0.479152
O       5.76452      9.66837     13.54719         0.013803     -0.137906     -0.098323
O       5.77001      9.45972      4.88065        -0.003428      0.319934      0.345492
O       5.83656      9.67465      9.27305        -0.049803     -0.340810     -0.154648
O       9.48432      1.87017      0.62570         0.187048     -0.166086      0.071922
O       9.65633      1.93283     13.62795        -0.086326      0.471627      0.958481
O       9.55949     13.49270      0.52394        -0.113159     -0.288005     -0.143221
O       9.49792     13.52355     13.52493        -0.042865     -0.447694      1.360001
O       9.61198      1.87203      4.89102        -0.111592      0.172980     -0.028099
O       9.62665     13.51979      4.89678         0.014100     -0.251932      0.011841
O       9.50283      1.95782      9.26029         0.791728      0.202481      0.340650
O       9.61814     13.43336      9.32822        -0.023807      0.004630     -1.179041
O       9.61107      5.85543      0.41354        -0.303826     -0.286343      1.255379
O       9.52610      5.77831     13.71891        -0.186739     -0.065971     -0.224735
O       9.67069      5.72066      4.87997        -0.289199      0.000395     -1.526381
O       9.66659      5.79480      9.18257        -0.244138     -0.137033      0.339849
O       9.62455      9.70407      0.48820        -0.227686     -0.276325      1.321054
O       9.63138      9.63103     13.60898        -0.282678     -0.171265     -0.291013
O       9.67578      9.59679      4.84507        -0.020975      0.308092     -0.845952
O       9.76493      9.65767      9.13789        -0.253587     -0.438130      1.484139
O       3.79570      2.04542      2.80757         0.155716     -0.549294     -0.658878
O       3.82280      1.90294     15.73306        -0.182769     -0.049164      0.421092
O       3.76443     13.33482      2.61518         1.411500      0.051552      0.306777
O       3.88086     13.54569     15.59981        -1.209349     -0.252259      0.630160
O      15.35218      1.84410      2.66470         0.200106     -0.027142     -0.019804
O      15.30175      1.97136     15.76214         1.223446     -0.125997      0.314353
O       0.02176     13.50571      2.80748        -0.364318     -0.294628     -0.536976
O      15.34132     13.49539     15.80017         0.515791     -0.176009     -0.410240
O       3.80046      1.99526      7.00878        -0.004729     -0.414704      0.069809
O       3.81803     13.48825      7.13102         0.546282     -0.257335     -0.042658
O      15.33703      1.92324      7.09937         0.612762      0.022394      0.145212
O      15.32415     13.34713      6.93386         0.746566      0.264864      0.680478
O       3.85597      1.88725     11.42389        -0.589613      0.170517     -0.224604
O       3.83580     13.58812     11.27021         0.030378     -0.511239      0.122712
O      15.30218      1.92929     11.47314         0.717375      0.317519     -0.015538
O       0.01201     13.33995     11.44085         0.645863      0.109923     -0.191318
O       3.81802      5.57633      2.68831         0.312853      0.731480      0.287974
O       3.76295      5.81926     15.81045         0.526327     -0.581730     -0.340439
O       0.00218      6.00349      2.63313        -0.032719     -0.917225      0.050761
O       0.03473      5.72568     15.78861        -0.905740      0.250527     -0.018475
O       3.80261      5.77829      7.12489         0.344916      0.138083     -0.072494
O       0.01909      5.78132      7.04913        -0.460071      0.295497      0.070981
O       3.81196      5.76844     11.43692         0.702263      0.013328      0.001965
O       0.02261      5.68409     11.45762         0.557905      0.101748      0.111456
O       3.83344      9.64590      2.74753         0.195600     -0.096903     -0.130343
O       3.93632      9.55531     15.78792        -1.215198      0.351984      0.323272
O       0.00835      9.48316      2.65586         0.945796      0.575855      0.057522
O       0.03990      9.50863     15.81843        -0.626705      0.980127     -0.310817
O       3.88961      9.54242      7.08723         0.259945      0.298271      0.322237
O       0.01092      9.60569      7.07885        -0.497573      0.092479      0.391890
O       3.84153      9.57496     11.41271         0.155986     -0.428758      0.088042
O       0.07793      9.70939     11.48820         0.011975     -0.227980     -0.277985
O       7.77531      1.74281      2.80170        -0.918541      0.086438      0.175682
O       7.66401      1.98880     15.70402        -0.354187     -0.197935      0.191304
O       7.70113     13.54702      2.73094        -0.182677     -0.041750     -0.029296
O       7.59525     13.35280     15.79305         1.008452      0.378778     -0.004124
O       7.61445      1.91534      7.19574         0.274799     -0.012003     -0.993398
O       7.62162     13.48060      6.99984         0.775747     -0.099150      0.160013
O       7.71292      1.96775     11.36971         0.158240      0.076524      0.411300
O       7.66995     13.46629     11.39728         0.257537     -0.493836     -0.104415
O       7.64828      5.80241      2.62691         0.654889     -0.294017      0.071535
O       7.61312      5.62716     15.81636         0.060731      0.442023      0.224370
O       7.65703      5.87693      7.13431         0.505379     -0.494779     -0.221797
O       7.73518      5.74765     11.34234        -0.454712      0.067994      0.497559
O       7.69644      9.58221      2.77063        -0.397741     -0.138483     -0.018081
O       7.61065      9.72406     15.76282         0.742398     -0.723992      0.099366
O       7.76425      9.57453      7.03202        -0.359856      0.495216      0.126586
O       7.69668      9.67944     11.40470         0.367555     -0.464418     -0.090646
O      11.55843      1.96439      2.74872        -0.254801      0.303168      0.102585
O      11.50086      1.77762     15.95916        -0.937218      0.771137     -0.298366
O      11.51364     13.28733      2.64909         0.065125     -0.175718      0.128965
O      11.49387     13.48652     15.69138        -0.311528     -0.212242      0.026205
O      11.56318      1.87905      7.08334        -1.168423      0.721025     -0.244233
O      11.52647     13.48932      7.06036        -0.115670      0.102014      0.316163
O      11.55538      1.94149     11.60894         0.204309     -0.028056     -0.757852
O      11.57550     13.46312     11.54997         0.378499     -0.435443     -0.530902
O      11.49246      5.64282      2.53727        -0.370585      0.306780      0.430547
O      11.49241      5.87086     15.76453         0.372783     -0.280570      0.096105
O      11.42819      5.74249      7.12416         1.252338      0.138115     -0.196981
O      11.52330      5.92396     11.35003        -0.470658     -0.249236      0.127813
O      11.54252      9.68110      2.63836        -0.521049     -0.134238      0.242284
O      11.54821      9.57026     15.77031        -0.135980      0.171487      0.146058
O      11.55939      9.64632      7.01934         0.738318     -0.381101      0.120010
O      11.54284      9.36012     11.54058         0.101266      1.170661     -0.625027
O       1.77580      3.85927      2.63654        -0.047091     -0.277360      0.222436
O       1.80904      3.88766     15.78224         0.887746     -0.996844      0.048444
O       2.00089     15.33510      2.62586         0.084293      0.360732      0.261233
O       1.86518      0.01321     15.79579         0.120672     -0.003802      0.012822
O      13.56061      3.84990      2.74577        -0.229690     -0.190043     -0.327999
O      13.30569      3.84404     15.79705         0.189129      0.502789     -0.040887
O      13.36578     15.28854      2.63140         0.018409      0.478186      0.242486
O      13.42403     15.35201     15.88056         0.265103     -0.615413     -0.045263
O       1.84232      3.84962      6.84570         0.324268     -0.648149      0.525550
O       1.87750     15.31257      7.12275         0.202993      0.789058     -0.221613
O      13.45223      3.92709      7.03146        -0.148340     -0.375126      0.087610
O      13.41917      0.06113      7.22031         0.389929     -0.632745     -0.439423
O       1.95921      3.79398     11.32841         0.131875      0.369856      0.716259
O       1.86802      0.05539     11.27027        -0.055245     -1.433664      0.303777
O      13.40378      3.87466     11.54844        -0.075292     -0.525622      0.055317
O      13.54757      0.00711     11.33782        -0.281129     -0.471587      0.145568
O       1.85953      7.75005      2.70198         1.472513     -0.687279     -0.115585
O       1.85227      7.73907     15.90724         0.688444     -1.246698     -0.549512
O      13.38497      7.69991      2.70972        -0.487684     -0.624262     -0.000360
O      13.46318      7.61451     15.66018         0.191932      1.210334      0.745191
O       1.90422      7.66766      7.08958         0.069050      0.042986      0.175204
O      13.40841      7.69708      7.06575         0.072264     -0.017597      0.171321
O       1.84353      7.72902     11.40341         0.499864     -0.543989      0.068333
O      13.59138      7.62379     11.54179         0.111709      1.029292     -0.338154
O       1.77068     11.52188      2.67873         0.643389     -0.898332     -0.027245
O       2.01497     11.56655     15.75056        -0.279348     -0.150980     -0.118293
O      13.53669     11.50092      2.69681        -0.066075     -0.228535      0.041956
O      13.50128     11.60831     15.63543        -0.109849     -1.301097      0.283896
O       2.01285     11.56018      7.24919        -0.359721     -0.855522     -0.355582
O      13.44340     11.52263      7.06896        -0.154858     -0.564451      0.251941
O       2.07196     11.50907     11.52770        -0.679150      0.558056     -0.891507
O      13.47159     11.40409     11.40404        -0.507447      1.409449      0.274080
O       5.84349      3.76813      2.79294         0.256280      0.455418     -0.277173
O       5.68527      3.75721     15.90663        -0.044765      0.369047     -0.430113
O       5.75229      0.00944      2.87238        -0.662738     -0.778243     -0.434070
O       5.74505     15.31803     15.73509         0.474502      1.073047      0.018019
O       5.73377      3.87793      6.94052         0.321911     -0.518908      0.557976
O       5.70403     15.35898      7.10793        -0.139711      0.737714     -0.325682
O       5.77927      3.87055     11.35661        -0.333896      0.053831      0.471414
O       5.83517      0.05966     11.37405        -0.293229     -0.792083      0.100844
O       5.72271      7.57656      2.77921        -0.223076      0.874674     -0.380703
O       5.72948      7.66420     15.66950         0.557516     -0.193375      0.439721
O       5.85607      7.74076      7.25458        -0.846955     -0.276320     -0.336081
O       5.75743      7.61768     11.41698         0.100835      0.542064      0.178585
O       5.83349     11.47907      2.69223        -0.110142      0.512329      0.276847
O       5.74324     11.56786     15.73793        -0.486173     -0.368676      0.286680
O       5.77630     11.54597      6.96115        -0.152247     -0.282111      0.252494
O       5.70255     11.46909     11.30173         0.009562      1.010415      0.499902
O       9.51001      3.79683      2.75762         0.155051      0.348946     -0.340226
O       9.65232      3.84992     15.92611        -0.077040     -0.259016     -0.391953
O       9.95997     15.26431      2.78111        -1.941515      0.943568     -0.949990
O       9.55516     15.35627     15.85600        -0.674375     -0.300292     -0.235866
O       9.52040      3.86555      7.03787         0.057605     -0.778629      0.008614
O       9.61990      0.02667      7.07391        -0.389459      0.042256      0.113060
O       9.66618      3.85363     11.46676         0.142819      0.890618     -0.105566
O       9.70933      0.01298     11.39727        -0.376959      0.400068     -0.014855
O       9.57124      7.71330      2.71127         0.471863     -0.825598     -0.358599
O       9.61364      7.71476     15.87017        -0.853843      0.176079     -0.222504
O       9.64963      7.67915      6.89670         0.130438      0.249055      0.496634
O       9.56395      7.73340     11.38873        -0.578215     -0.881246      0.065121
O       9.57443     11.55052      2.71635        -0.361942     -0.140348      0.180641
O       9.63914     11.47418     15.84086        -0.390359      0.845676     -0.527835
O       9.70717     11.55277      7.03836        -0.524307      0.052044     -0.085261
O       9.74272     11.51303     11.37542        -0.294261     -0.534068      0.298479
