  # total energy = -7881.66323397 
CRSYTAL
PRIMVEC
    15.3600000000000000    0.0000000000000000    0.0000000000000000
     0.0000000000000000   15.3600000000000000    0.0000000000000000
     0.0000000000000000    0.0000000000000000    17.440000000000000
PRESSURE
1.60619 1.47071 2.20313 -0.151262 -0.298629 0.039595
PRIMCOORD
320 1
Pb       3.89565      3.82583      4.39007        -0.461357     -0.106780      0.200137
Pb       3.92394      3.81788     17.43468        -0.299088      0.015698     -0.223993
Pb       3.78501      0.02190      4.31728         0.029682      0.055038     -0.094246
Pb       3.69982     15.31995     17.35452         0.320696      0.319135     -0.058418
Pb       0.06077      3.74020      4.35879        -0.092331      0.072528      0.070985
Pb       0.08587      3.95874     17.42837        -0.521818     -0.341077     -0.192913
Pb       0.09970      0.02737      4.33101        -0.481941     -0.003921     -0.087939
Pb      15.23724     15.34571     17.37833         0.272265      0.286000     -0.161627
Pb       3.75084      3.74250      8.73451        -0.132763      0.448854     -0.303320
Pb       3.85462      0.00491      8.57749        -0.366389     -0.307714      0.421133
Pb      15.13602      3.96927      8.62970         0.814740     -0.645384     -0.132220
Pb      15.18999     15.33119      8.71281         0.576095      0.371215     -0.322602
Pb       3.77655      3.66257     13.10551         0.321135      0.360739     -0.404518
Pb       3.72298      0.00342     12.93491         0.587586     -0.678351      0.238570
Pb       0.04106      3.78838     13.05449        -0.044520      0.196416     -0.410201
Pb      15.32717     15.27730     13.07484         0.065072     -0.071175     -0.241103
Pb       3.86027      7.66073      4.33093        -0.395640      0.184017     -0.283281
Pb       3.81738      7.57125     17.39718        -0.269017      0.867304      0.300663
Pb       0.13848      7.84426      4.34539        -0.344649     -0.928493     -0.344007
Pb      15.19961      7.69041     17.43999         0.340760      0.085763     -0.428393
Pb       3.82403      7.73844      8.62206         0.180625     -0.750701      0.481268
Pb       0.02546      7.60093      8.62494        -0.451142      0.268806      0.236879
Pb       3.83764      7.55391     12.99214        -0.144479      0.167983      0.182429
Pb      15.34251      7.63041     13.12457         0.095569      0.355069     -0.846674
Pb       3.81442     11.59640      4.23221        -0.156292     -0.561097      0.006084
Pb       3.98060     11.62807     17.39889        -0.107500     -0.889124      0.212547
Pb       0.07128     11.54815      4.36984        -0.270823      0.393062     -0.527603
Pb      15.27932     11.56741     17.30014        -0.160896     -0.374770      0.052761
Pb       3.88281     11.52992      8.61477         0.031994     -0.193524      0.127537
Pb      15.28388     11.44299      8.70573         0.408998     -0.285923      0.103406
Pb       3.92002     11.43898     13.13770        -0.123975      0.207022     -0.453172
Pb       0.18531     11.58344     13.04554        -0.496934     -0.993925     -0.121666
Pb       7.72591      3.76043      4.33171        -0.682614      0.008313     -0.570205
Pb       7.68285      3.87208      0.00078        -0.080267      0.056107     -0.714749
Pb       7.70321      0.01073      4.40250        -0.214669     -0.146399     -0.546753
Pb       7.54923      0.08115     17.30100         0.179024     -0.237519      0.169143
Pb       7.58804      3.84756      8.77700        -0.234225      0.228220     -0.581101
Pb       7.66001     15.25636      8.75807        -0.127905     -0.201552     -0.751429
Pb       7.88398      3.92351     13.04388        -0.781991     -0.309193      1.042776
Pb       7.68695      0.13099     13.02303        -0.767677     -0.555232     -0.261464
Pb       7.74339      7.51799      4.33052        -0.649465      0.771290     -0.417865
Pb       7.59436      7.79503     17.40694         0.156711     -0.910377      0.058010
Pb       7.71754      7.66801      8.66802        -0.769038      0.186602      0.278196
Pb       7.61823      7.73125     13.04012         0.285050     -0.519411     -0.054450
Pb       7.64276     11.52341      4.32219        -0.096777     -0.578623      0.131589
Pb       7.74288     11.53098     17.38590        -0.833812      0.584034     -0.079540
Pb       7.53810     11.60430      8.55549        -0.161244     -0.904156      0.671338
Pb       7.78574     11.48566     12.99744        -0.768887      0.686598     -0.609040
Pb      11.43732      3.78399      4.30927         0.483476      0.263472     -0.628981
Pb      11.73964      3.90320      0.08416        -0.045008     -0.052055     -0.097647
Pb      11.55834     15.25147      4.34385        -0.023741      0.215988     -0.013470
Pb      11.29147     15.26354      0.03109         0.122738      0.169545     -0.376213
Pb      11.39603      3.87491      8.69129         0.334078      0.129438     -0.470611
Pb      11.51995      0.01310      8.75284        -0.293300     -0.238974     -0.472384
Pb      11.61152      3.71623     13.05881        -0.752873      0.257156     -0.009926
Pb      11.55441     15.32786     13.03880        -0.028085     -0.080335     -0.422139
Pb      11.52993      7.58929      4.35875         0.006175      0.506180     -1.025856
Pb      11.52882      7.68007     17.39219        -0.169684     -0.004465      0.139103
Pb      11.53574      7.71466      8.71028         0.264395      0.185671     -0.400275
Pb      11.35635      7.63322     13.12079         0.348821     -0.139317     -0.373562
Pb      11.59257     11.43832      4.26036        -0.640498     -0.337530      0.414457
Pb      11.40186     11.40479     17.35818         0.299500      0.096184     -0.468318
Pb      11.62013     11.45354      8.58109        -0.767202     -0.304965     -0.109352
Pb      11.55101     11.46622     13.03317         0.243781     -0.042071     -0.362426
Ti       1.94902      1.98095      2.28703        -0.762297     -0.751696      0.249246
Ti       1.86828      1.85272     15.40468         0.000770      0.739609      0.046279
Ti       1.83205     13.42271      2.27099         0.113372     -0.122845      0.121780
Ti       1.87643     13.34012     15.47417        -0.063104      1.001300     -0.419691
Ti      13.36696      1.88322      2.41841         1.465808      0.538732      1.349260
Ti      13.44491      1.94348     15.33020        -0.405671      0.158637      0.668953
Ti      13.33816     13.41704      2.19183         1.093248      0.455962      2.291327
Ti      13.28993     13.53414     15.41926         0.054762     -1.671855     -0.503808
Ti       1.84115      1.85289      6.85278         0.145435      0.644267     -0.789376
Ti       1.84883     13.36931      6.71235         0.574265      0.779315      0.466925
Ti      13.31113      1.89136      6.66436         1.286518     -0.047328     -1.038901
Ti      13.43951     13.37061      6.67063        -0.678702      0.952024     -0.366197
Ti       1.88763      1.77740     10.98631        -0.298607      0.407843     -0.673305
Ti       1.81928     13.29869     10.90276         1.316487     -0.111246     -0.263016
Ti      13.48274      1.85573     11.04250        -0.610243     -0.103243      0.107067
Ti      13.42880     13.39746     10.94568        -0.859610     -0.269967      1.230084
Ti       1.94766      5.73192      2.32778        -0.677479      0.964655      1.721516
Ti       1.91853      5.68287     15.33077        -0.460946      1.215776     -0.019003
Ti      13.56434      5.73088      2.42294        -1.414312      0.724470      0.151764
Ti      13.44620      5.78033     15.29933         0.128801     -0.038765      1.824601
Ti       1.88357      5.71761      6.72084         0.477997     -0.561306     -0.197574
Ti      13.35020      5.71668      6.52621         0.481762      0.562177      1.113578
Ti       1.90931      5.62163     11.02959        -0.482517      1.330498      0.636186
Ti      13.33880      5.63059     11.07676         0.365098      1.663695      2.110795
Ti       1.78149      9.64160      2.22838         1.832926     -0.624240      1.670865
Ti       1.85558      9.56841     15.52678         0.498154     -0.295998     -1.116215
Ti      13.38305      9.64665      2.29075        -0.393360     -1.947035     -0.219754
Ti      13.37274      9.61836     15.34631        -0.240175     -0.112862     -0.630898
Ti       1.86664      9.58183      6.68982         0.320830     -0.851085     -0.698843
Ti      13.42072      9.56447      6.59982        -0.978269     -1.142067      0.383000
Ti       1.98775      9.47028     11.03397        -1.397087     -0.003931      0.054418
Ti      13.39102      9.45433     11.14728         0.605028      0.002647     -0.354038
Ti       5.68150      1.86764      2.26264         0.889205      0.120822      0.104823
Ti       5.66348      1.97533     15.40804         0.397414     -0.666052      2.396734
Ti       5.77832     13.44325      2.36937        -0.337202      0.090969      0.925940
Ti       5.72073     13.49835     15.34495         0.317710     -0.395176     -0.359514
Ti       5.76258      1.86210      6.68536        -0.698694     -0.200933      1.525356
Ti       5.64375     13.43002      6.56815         0.074423     -1.537491      0.646264
Ti       5.68885      1.89122     10.87072        -0.250488     -0.093210      0.563870
Ti       5.64929     13.39293     10.99780         0.146791     -0.166583      2.326996
Ti       5.67112      5.70336      2.36123         0.225808      0.650524     -0.981963
Ti       5.70166      5.79232     15.46359         1.447116     -0.210255     -0.285509
Ti       5.71002      5.59875      6.68253        -0.455715      1.592455      1.566867
Ti       5.74312      5.65970     11.05596        -0.444240      0.391905     -0.848881
Ti       5.61206      9.62169      2.32804         0.406273     -1.169135      0.283027
Ti       5.73834      9.60483     15.40114        -1.516441      0.226805      1.331537
Ti       5.64781      9.44950      6.63443         0.896851      1.095714      0.244406
Ti       5.74276      9.57449     11.06491         0.330683      0.829637     -0.162068
Ti       9.53460      1.85520      2.29096        -0.152351     -0.287820     -0.876090
Ti       9.67188      1.92037     15.49861        -0.582160      0.454048      0.846447
Ti       9.56861     13.37599      2.36738        -0.611748      0.365448      0.672933
Ti       9.53397     13.43190     15.20602         0.035716      0.258995      0.624736
Ti       9.57066      1.86348      6.66587        -0.692061     -0.364337      1.281476
Ti       9.51132     13.37383      6.69414         0.567180      0.411602      0.837861
Ti       9.53808      1.89279     10.91588         0.833200      0.207698      1.912330
Ti       9.56326     13.48675     10.98483        -0.911299     -0.649106      1.490246
Ti       9.54413      5.69201      2.25499         1.114280      0.938920      0.899824
Ti       9.67080      5.70741     15.52782        -1.475600      0.398951      0.113094
Ti       9.49743      5.71772      6.58247         0.690864      0.148172      0.167231
Ti       9.57007      5.67427     10.97473        -0.128374      0.829800      2.034423
Ti       9.46537      9.54320      2.28289         0.384842     -0.387985      1.172606
Ti       9.48295      9.61082     15.38354         1.412603     -1.392068      0.013841
Ti       9.46736      9.55079      6.74802         0.340284      0.329504      0.212806
Ti       9.59407      9.61203     11.05463        -0.292034     -0.358714      0.029836
O       1.81202      1.98315      0.52308         0.251047     -0.042951      0.093487
O       1.95648      1.83971     13.64096        -0.238787      0.177726     -0.922452
O       1.77846     13.40019      0.52039        -0.120810      0.299758     -1.077495
O       1.76665     13.34340     13.70896         0.150942      0.038082     -0.312779
O      13.42093      2.05510      0.73696         0.367465     -0.375471     -2.503689
O      13.51793      1.98298     13.56233        -0.263828     -0.501679     -0.221213
O      13.36636     13.46326      0.45636        -0.059128      0.055176     -0.361653
O      13.29609     13.66399     13.66218        -0.027069     -0.765217     -0.894119
O       1.85710      1.83456      5.06642         0.239687     -0.054703     -0.602319
O       1.79658     13.43739      4.93951         0.208773     -0.331794     -0.341233
O      13.34327      1.92078      4.84082        -0.155436     -0.065477      1.285958
O      13.51386     13.39794      4.91643        -0.469525     -0.119287      0.461633
O       1.83421      1.82737      9.22194         0.153537      0.183286      0.218051
O       1.90569     13.24102      9.14377        -0.487340      0.273826      0.106041
O      13.49639      1.90485      9.30266        -0.119775     -0.124743     -1.055890
O      13.51119     13.38871      9.19943        -0.381002     -0.077244     -1.022027
O       1.89056      5.61303      0.62784        -0.100159      0.020076     -2.166261
O       1.98544      5.84518     13.57217        -0.263519     -0.512000      0.004847
O      13.45512      5.71906      0.63277         0.539788      0.129324     -0.532248
O      13.37131      5.68980     13.60522        -0.077368     -0.046883     -1.331682
O       1.96319      5.76047      4.97328        -0.130008     -0.126821     -0.326155
O      13.45840      5.59051      4.81729        -0.686057      0.440577     -0.786758
O       1.90603      5.63490      9.29692        -0.446314      0.100967     -0.919161
O      13.39054      5.77063      9.37917        -0.240406     -0.214138     -1.993273
O       1.81692      9.62450      0.55675        -0.136461      0.127383     -3.051730
O       1.70197      9.60637     13.72910         0.326735      0.199465     -0.164438
O      13.26306      9.50970      0.49681         0.472547      0.410705      0.625268
O      13.25111      9.46157     13.56806         0.320953      0.703552     -0.053737
O       1.85422      9.51449      4.89957         0.041491      0.391294      0.426189
O      13.24604      9.62433      4.88575         0.585592      0.144242     -1.166035
O       1.96132      9.46707      9.27452        -0.116118      0.101113     -0.329306
O      13.37104      9.38747      9.35318        -0.213824      0.485859     -0.993531
O       5.64024      1.84643      0.49225        -0.122046      0.300196     -0.324144
O       5.59817      1.95833     13.74416        -0.163447     -0.227830     -2.952893
O       5.92839     13.32341      0.66808        -0.405280      0.137830     -1.434269
O       5.64307     13.55809     13.60787         0.180460     -0.328144     -0.068688
O       5.69012      1.83993      4.98984         0.131732     -0.135321     -1.830783
O       5.66421     13.34551      4.82109         0.163362      0.441960     -0.845082
O       5.65586      1.89633      9.10210         0.568491     -0.046843      0.155384
O       5.69149     13.43188      9.27910        -0.015899     -0.293528     -1.177945
O       5.60806      5.76667      0.56505         0.063795     -0.450441     -0.124064
O       5.67290      5.79277     13.70575        -0.052216      0.015091     -0.275559
O       5.62044      5.63486      4.97460         0.354196      0.353270     -1.858430
O       5.84547      5.70176      9.28017         0.114038     -0.198421      0.086491
O       5.73044      9.71017      0.58119         0.001680     -0.211358     -0.583820
O       5.68645      9.50436     13.69035         0.287937      0.268541     -1.231358
O       5.66951      9.32282      4.89824         0.004706      0.463487     -0.610494
O       5.77492      9.76130      9.33212        -0.555479     -0.520369     -0.442721
O       9.44397      1.78963      0.49116         0.481484      0.243022      0.849674
O       9.68877      2.03398     13.77790        -0.210214     -0.544309     -1.091500
O       9.61460     13.38263      0.64641        -0.109392     -0.094175     -0.729523
O       9.51426     13.49367     13.42009         0.217849      0.217041      0.739153
O       9.63164      1.75717      4.93649        -0.113175      0.289566     -1.072977
O       9.53577     13.48226      4.96977        -0.220090     -0.210777     -1.243770
O       9.64680      1.86538      9.20841        -0.605908      0.342586     -0.832678
O       9.35387     13.53863      9.26464         0.494116     -0.159809     -1.005826
O       9.65298      5.78258      0.53493        -0.529070     -0.401332     -0.915232
O       9.55333      5.68675     13.78492         0.237199     -0.154675     -0.826086
O       9.52536      5.70944      4.75861        -0.007400     -0.039343      1.148651
O       9.48814      5.54827      9.26351         0.225009      0.050485     -1.382637
O       9.64325      9.60238      0.53197        -0.471505      0.091314     -0.391208
O       9.58910      9.45059     13.62645        -0.390691      0.543782     -0.246228
O       9.52397      9.54739      5.03734        -0.298235     -0.101032     -1.336402
O       9.65099      9.55428      9.33425        -0.013566      0.042129     -1.214595
O       3.90039      1.88402      2.78525        -1.887140     -0.227166     -0.069863
O       3.68659      1.96136     15.80920         1.149107     -0.157099      0.490036
O       3.81225     13.32901      2.61005        -0.055990      0.367924      0.189681
O       3.83574     13.46672     15.74883        -0.942527     -0.437487      0.553421
O       0.04249      1.91568      2.78644         0.629979     -0.130558     -0.052577
O      15.28685      1.80814     15.77244        -0.107777      0.063870      0.226090
O      15.23954     13.36262      2.78927         0.476783      0.327083     -0.755171
O      15.22008     13.40821     15.70732         0.793444      0.241509      0.682842
O       3.80176      1.87987      7.09184         0.628989      0.147030      0.257750
O       3.75757     13.43656      7.05867        -0.012159     -0.466875     -0.140586
O      15.30050      1.92058      7.04223        -0.988241     -0.204278      0.381204
O      15.34161     13.47413      7.04571        -0.287252     -0.342472      0.371630
O       3.79458      1.90374     11.29079        -0.217400     -0.253042      0.644179
O       3.68641     13.30011     11.39841         0.582421      0.144638      0.205715
O       0.00921      1.83629     11.35537         0.486645      0.493871      0.741670
O      15.27950     13.34914     11.27800         0.957132      0.085465      0.624405
O       3.76429      5.68823      2.72373         0.634567     -0.174847      0.420254
O       3.76210      5.81210     15.82663         0.412452     -0.185446      0.107904
O       0.02335      5.78731      2.77252         0.584749     -0.298816      0.036923
O      15.33910      5.74938     15.68363         0.195468      0.116536      0.374204
O       3.82296      5.65029      7.10267         0.417087      0.386271      0.274696
O      15.30864      5.73298      6.94751        -0.229877     -0.252829      0.699935
O       3.78177      5.84062     11.30431         0.849044     -0.140713      0.535135
O      15.22511      5.69753     11.43386         0.841037     -0.238690      0.339716
O       3.73957      9.69734      2.67057         0.122190     -0.410768      0.282153
O       3.81828      9.56749     15.84184        -0.043831      0.389880      0.047675
O      15.33862      9.51494      2.65542        -1.550884      0.743076      0.319720
O      15.27912      9.66233     15.82660         0.066709      0.307634      0.334017
O       3.79088      9.55040      7.03825        -0.217999     -0.119456      0.308943
O      15.28292      9.51242      6.93193         1.138894      0.057504      0.701192
O       3.81969      9.66758     11.54426        -0.202182     -0.914639     -0.260748
O      15.23453      9.45599     11.31805         1.433527      0.390642      0.793503
O       7.57248      1.87216      2.65065         1.675931      0.064821      0.579567
O       7.58440      1.88514     15.77190         0.442257     -0.111528      0.069158
O       7.67326     13.40034      2.79831         0.182381      0.155396      0.380471
O       7.69134     13.44695     15.73467        -0.452163      0.042294     -0.121890
O       7.64499      1.86454      7.01436         0.451276     -0.228477      0.211243
O       7.53205     13.39751      7.08230         0.863239      0.402059     -0.353547
O       7.47723      2.14971     11.39382         1.862775     -1.128104     -0.289471
O       7.53100     13.37090     11.42027         0.833513      0.218314      0.154903
O       7.58159      5.70178      2.61796         0.533108     -0.181763      0.463986
O       7.64596      5.69312     15.82855        -0.701514      0.206849      0.529551
O       7.69396      5.84232      7.08581        -0.598465     -0.899058     -0.249145
O       7.63966      5.55795     11.45098         0.180652      0.286948     -0.017569
O       7.51419      9.31198      2.72859         1.369999      1.194572     -0.157257
O       7.62718      9.65659     15.83780         0.393751     -0.516649     -0.051181
O       7.54164      9.63010      7.13705         0.839003     -0.247134     -0.099731
O       7.67486      9.68337     11.39998         0.171308     -0.158626      0.674983
O      11.55525      1.88019      2.69426        -2.285335      0.400602      0.291168
O      11.58529      2.00778     15.90480        -0.756325     -0.360906     -0.200921
O      11.45645     13.39268      2.73280         1.144574     -0.016922     -0.072602
O      11.37569     13.44758     15.82557         0.002951     -0.494837     -0.102962
O      11.45662      1.91167      7.19047         0.114946      0.037069     -0.270851
O      11.43955     13.41752      7.03788         1.050662     -0.374088      0.342616
O      11.54508      1.72432     11.24848        -1.130029      0.282539      0.583878
O      11.40930     13.66761     11.29727         0.973608     -0.249527     -0.039747
O      11.46328      5.72450      2.57210        -0.094932     -0.246380      0.976162
O      11.57213      5.77605     15.87887         0.241637     -0.214811     -0.270607
O      11.46284      5.76201      7.12079        -0.247767     -0.228463     -0.534494
O      11.41638      5.64517     11.54029         0.107298      0.194685     -0.470190
O      11.45451      9.57376      2.75663        -0.229220      0.127340     -0.105749
O      11.43592      9.46562     15.72140        -0.328019      0.654873      0.419827
O      11.48487      9.52900      6.96213         0.295767      0.342492      1.156997
O      11.45580      9.49005     11.39643        -0.868351      0.488433      0.819430
O       2.00997      3.79876      2.77860        -0.588979     -0.233360     -0.049744
O       1.92638      3.86004     15.66051        -0.591336     -0.402677      0.299715
O       1.97710     15.30169      2.59283        -0.333151      0.712736      0.534714
O       1.88502      0.03400     15.75019        -0.224247     -1.606082      0.747823
O      13.50803      3.89773      2.74363        -0.417362     -1.074853      0.375238
O      13.50564      3.83498     15.76215        -0.273285      0.111951      0.078503
O      13.45690      0.00442      2.83019        -0.288135     -1.381185     -0.816640
O      13.17806     15.31296     15.67530         0.891926      2.216346      0.968109
O       1.94979      3.81157      7.19681        -0.644014      0.059865     -0.124747
O       1.95549     15.33900      7.15433        -0.657983     -1.044019     -0.061625
O      13.39651      3.80464      6.99554        -0.410007      0.214412      0.437924
O      13.36783     15.35738      7.11224         0.009898     -0.231340     -0.035214
O       1.94036      3.81191     11.53093        -0.305792     -1.118314     -0.109193
O       1.92651     15.24813     11.39698        -0.616432      0.253828     -0.151863
O      13.34318      3.75034     11.47193         0.395440     -0.180147     -0.146346
O      13.56346     15.29412     11.47159        -0.455319      0.210067     -0.146335
O       1.85830      7.69335      2.62652         0.433166     -0.404954      0.306848
O       1.80318      7.73539     15.79150         0.153268     -1.253644      0.484325
O      13.38495      7.73071      2.84021         0.136596     -0.413420     -0.202159
O      13.48668      7.75640     15.75516        -0.121427     -1.701423      0.200575
O       1.96448      7.63875      7.14576        -0.441485     -0.011071     -0.052701
O      13.47228      7.61905      6.94847        -0.574783     -0.118494      0.186588
O       1.87016      7.59412     11.43207        -0.124143      0.509900      0.242129
O      13.25906      7.63870     11.54448         0.149372     -1.315766      0.053499
O       1.87010     11.53785      2.63452        -0.550238      0.132959      0.736858
O       1.98098     11.53762     15.81057        -0.666900     -0.042274      0.449803
O      13.40993     11.48285      2.63487        -0.183617      0.908535      0.039220
O      13.30538     11.47595     15.69534        -0.229407      0.694476      0.368813
O       1.92370     11.39337      7.11528        -0.661589      1.267085     -0.236678
O      13.54865     11.47775      6.98288        -0.669664      0.184804      0.618573
O       1.83456     11.39877     11.31255        -0.540240      0.529417      0.659861
O      13.30141     11.56523     11.41754        -0.335305     -0.247527      0.122507
O       5.69439      3.76095      2.81828         0.180676      0.386775     -0.258853
O       5.69665      3.82986     15.78963        -0.430286      0.703436      0.525093
O       5.78120      0.01000      2.72472        -0.348186     -0.911801      0.202682
O       5.54892     15.32188     15.81065         0.840053      0.693888      0.255430
O       5.78454      3.79238      6.97988         0.266932     -0.550563      0.621634
O       5.65374     15.21361      7.02244         0.372770      1.877346      0.101921
O       5.57032      3.81710     11.29227        -0.283032     -0.169140      0.331958
O       5.68272     15.30668     11.39477         0.059497      1.084670     -0.108117
O       5.55913      7.57280      2.69982         0.100152      0.214521      0.076201
O       5.69948      7.71630     15.89406         0.425865     -0.495897      0.009138
O       5.75246      7.65956      7.16391        -0.223254     -0.873337     -0.038539
O       5.86267      7.71959     11.48403        -0.545508     -1.001012     -0.193359
O       5.75390     11.45093      2.76006         0.350400      0.743022      0.415481
O       5.77961     11.51737     15.85017        -0.235053      0.562135     -0.339716
O       5.65934     11.48611      6.95147        -0.098087      0.130068      0.280701
O       5.70266     11.46120     11.60135         0.015090      0.573123     -0.030426
O       9.52098      3.75363      2.73714         0.138777     -0.130739     -0.164405
O       9.53964      3.82329     15.89556         0.220042     -0.520258      0.387667
O       9.65248     15.34214      2.68477        -0.369374      0.020127      0.361373
O       9.55853     15.27857     15.83120         0.212154      0.960594     -0.316223
O       9.52268      3.82959      6.93656         0.204070     -0.194253      0.297425
O       9.56544     15.29704      7.12174        -0.207802      0.567177      0.156930
O       9.63859      3.77573     11.51454        -0.003186     -0.849346     -0.512710
O       9.38469      0.05117     11.39382        -0.271023      0.673916     -0.035850
O       9.51084      7.65752      2.70843         0.369414     -0.328222      0.045983
O       9.51176      7.61994     15.84698        -0.082212      0.945647      0.111530
O       9.49118      7.66174      7.12208         0.498538     -0.550206     -0.127138
O       9.39316      7.54541     11.42745         0.626933      0.606024     -0.138493
O       9.51894     11.43955      2.75616        -0.273163      0.035249     -0.018858
O       9.55240     11.51896     15.67532         0.162444     -0.154855      0.096335
O       9.55921     11.48226      7.11621        -0.046601      0.294175      0.178967
O       9.62547     11.58014     11.44688         0.209429     -0.563016     -0.048999
