  # total energy = -7865.56508341 
CRSYTAL
PRIMVEC
    15.010000000000000    0.0000000000000000    0.0000000000000000
     0.0000000000000000   15.010000000000000    0.0000000000000000
     0.0000000000000000    0.0000000000000000    16.400000000000000
PRESSURE
16.8109 16.7116 6.86674 -0.02204 0.08179 -0.15385
PRIMCOORD
320 1
Pb       3.85733      3.69742      4.26097        -0.412238      0.512591     -0.477312
Pb       3.66118      3.75987     16.37495        -0.115609     -0.047189      0.449390
Pb       3.70033     15.00490      4.16582         0.849319     -0.236524     -0.326610
Pb       3.83731     14.93489      0.03066        -0.548121     -0.074745      0.436527
Pb      14.91784      3.78930      4.15338         0.051817      0.250189     -0.382122
Pb      14.90059      3.61282      0.00740         0.795530      0.160861      0.760302
Pb      14.92000      0.03301      4.29139        -0.068555     -0.025600     -0.897282
Pb      15.00530     14.90528      0.14788         0.367302      0.283499     -0.215892
Pb       3.49024      3.76296      8.27234         0.565062      0.202734     -0.514286
Pb       3.65610      0.08510      8.16548         0.053466     -0.879185     -0.204688
Pb      14.82396      3.81979      8.35393         0.762851     -0.431583     -0.325624
Pb      14.83033     14.97303      8.18353         0.512530      0.103131      0.175890
Pb       3.64742      3.70416     12.36173         0.169654     -0.086024     -0.214040
Pb       3.64685     14.93912     12.39010        -0.092065     -0.055323     -0.186874
Pb      14.92539      3.78746     12.42800         0.172199     -0.711108     -0.968753
Pb      14.98991     14.96724     12.33622        -0.111559     -0.225850      0.446386
Pb       3.86698      7.46264      4.19244        -0.186538     -0.177906     -0.693593
Pb       3.77565      7.51234      0.08409        -0.171266     -0.446801      0.292630
Pb       0.09353      7.52122      4.18611        -0.217399     -0.444929      0.080779
Pb      14.96189      7.47901      0.04028         0.461266     -0.012928     -0.108889
Pb       3.75399      7.51002      8.19161        -0.127644      0.454368     -0.432035
Pb       0.02476      7.53941      8.37150        -0.081833      0.049069     -0.247546
Pb       3.62592      7.50422     12.28650         0.624747     -0.173870      0.744742
Pb      14.89472      7.42993     12.31799        -0.084963      0.665720     -0.013818
Pb       3.83956     11.09635      4.36541        -0.580672      0.872056     -1.115555
Pb       3.77626     11.13739      0.00720        -0.399223      0.668628      0.261716
Pb       0.16898     11.13311      4.14522        -0.470900      0.245701     -0.159218
Pb       0.03995     11.33016      0.12206         0.218819     -0.380963     -0.661961
Pb       3.78826     11.28025      8.22009        -0.166825     -0.135391     -0.400186
Pb       0.08622     11.27201      8.20048         0.026835     -0.042739      0.157166
Pb       3.75319     11.26980     12.25509        -0.348563      0.001924      0.483573
Pb       0.02583     11.28445     12.32465         0.107020      0.006649      0.236405
Pb       7.44271      3.81849      4.02637         0.176127     -0.553746      0.305214
Pb       7.47808      3.69806     16.38431        -0.011605      0.068655      0.783020
Pb       7.51318     14.88803      4.15229        -0.314993      0.406113     -0.391314
Pb       7.39171     14.92933      0.00947         0.736780      0.015250      0.611801
Pb       7.36829      3.68375      8.20392         0.576217      0.445964     -0.129372
Pb       7.45481      0.24265      8.18381         0.476628     -1.285266     -0.198613
Pb       7.29335      3.80220     12.38148         0.683065      0.193908     -0.370554
Pb       7.44027     14.90533     12.31956         0.112800      0.742265     -0.136165
Pb       7.56164      7.49036      4.10349         0.310685     -0.181526     -0.146875
Pb       7.52939      7.47068     16.30084        -0.671863      0.153556      0.875664
Pb       7.51914      7.40481      8.34759         0.105025      0.395895     -1.037801
Pb       7.44955      7.62077     12.34276         0.211517     -0.658097     -0.456851
Pb       7.68014     11.14044      4.22617         0.094108      0.217985     -0.545637
Pb       7.49078     11.25171     16.37752         0.113578     -0.003388     -0.031746
Pb       7.63966     11.32720      8.12232        -0.952483     -0.428563      0.158266
Pb       7.47480     11.32259     12.14453        -0.014327     -0.836566      1.104793
Pb      11.05980      3.84087      4.14962         1.271192     -0.786259     -0.116358
Pb      11.28224      3.74354      0.02940        -0.656909     -0.706355     -0.123002
Pb      11.29191     14.94419      4.12931        -0.473200      0.286799     -0.192477
Pb      11.25556     14.95047      0.08626        -0.560856     -0.033554     -0.075325
Pb      11.19694      3.72010      8.30016        -0.400958     -0.292828     -0.545653
Pb      11.17013      0.05928      8.24321        -0.051244     -0.403163     -0.470543
Pb      11.15518      3.71058     12.35922        -0.238108     -0.020867     -0.208137
Pb      11.21822      0.05406     12.44299         0.115980     -0.446317     -0.319877
Pb      11.44394      7.48529      4.20737        -0.399965      0.334175     -0.380020
Pb      11.25102      7.45228      0.07882         0.295920      0.436600     -0.446942
Pb      11.24923      7.45676      8.27504        -0.074131      0.272275     -0.511938
Pb      11.23061      7.43392     12.30079        -0.353360      0.479944      0.238731
Pb      11.40621     11.10849      4.13524        -0.233865     -0.238544     -0.619092
Pb      11.33956     11.12239     16.38604        -0.198857      0.374162      0.544471
Pb      11.33105     11.32797      8.31399        -0.139254     -0.061585     -0.663900
Pb      11.20183     11.25616     12.29155         0.250550     -0.161542      0.006942
Ti       1.82915      1.81176      2.20809         0.246481      0.268298     -0.716785
Ti       1.76668      1.82928     14.37194         0.644769     -0.466975     -0.154651
Ti       1.86250     13.14135      2.25946         1.503741     -1.654336     -1.400575
Ti       1.89819     13.09550     14.49774        -0.861262     -0.763572     -0.892917
Ti      13.07828      1.81859      2.10838         0.807928      0.504662     -0.023031
Ti      13.10673      1.85137     14.33303        -1.054709     -0.504573     -0.238508
Ti      13.13144     13.09995      2.11956         0.259764     -0.988627      0.847398
Ti      13.08420     13.12302     14.42686         1.927793     -0.304283     -0.782991
Ti       1.76138      1.90378      6.07510         1.335607      0.415956      1.460024
Ti       1.76919     13.18194      6.09793         0.969365     -0.707489      1.577436
Ti      13.04632      1.86912      6.16084        -0.441129     -0.186818      0.780347
Ti      13.06016     13.03864      6.14969        -0.374249      0.727139      0.963612
Ti       1.85628      1.76752     10.22416        -1.436882      1.216857      0.432350
Ti       1.87206     13.15707     10.22461        -0.016150     -1.102890     -0.077276
Ti      13.06535      1.87787     10.29012         0.368836     -0.332532      0.573075
Ti      13.14664     13.14110     10.32121        -0.227308      0.564916     -0.126249
Ti       1.92485      5.51490      2.15059        -0.486604      1.282659     -0.624685
Ti       1.76918      5.62666     14.34401         1.192214     -0.252104      0.285356
Ti      13.16879      5.54278      2.01519         0.615474      0.184406      0.930392
Ti      13.00816      5.56740     14.36712        -0.018190      0.753526      0.872452
Ti       1.82117      5.65792      6.18415         0.568488     -0.874770     -0.486674
Ti      13.11598      5.59798      6.20499         0.564882     -0.184379     -0.900097
Ti       1.88355      5.59190     10.33552        -1.096341      0.103220     -0.259178
Ti      13.07421      5.59793     10.30040         0.419163      0.590096     -0.266474
Ti       1.92760      9.32462      2.13699         1.254799      0.170318     -0.654832
Ti       1.83417      9.29855     14.36415        -0.610869      1.240223     -0.458729
Ti      13.31586      9.29174      2.03857        -1.429366      0.868903     -0.384013
Ti      13.09213      9.37005     14.34253         0.688629      0.483333     -0.277419
Ti       1.92329      9.34004      6.27959         0.128731      0.992963      0.364965
Ti      13.22027      9.33883      6.26010        -0.645472     -0.018807     -0.338108
Ti       1.84477      9.36362     10.39150        -0.504249      0.898000     -1.080334
Ti      13.07960      9.41211     10.27713         0.400956     -0.778446     -0.343698
Ti       5.61803      1.86839      2.10752        -0.020519     -0.685484      0.426888
Ti       5.59571      1.82483     14.37404        -0.412060      0.292089     -0.490849
Ti       5.62535     13.10947      2.15205        -0.513009      0.707483     -0.091284
Ti       5.65557     13.10970     14.27807        -1.288544     -0.841925      0.772309
Ti       5.55494      1.89372      6.23665         1.178002      0.002286     -1.169864
Ti       5.56740     13.13793      6.19162        -0.005265      0.015442     -0.647233
Ti       5.58357      1.91306     10.25585        -0.505505     -0.297856      0.549773
Ti       5.64812     13.15570     10.21931        -1.536246      0.563217     -0.919749
Ti       5.64716      5.60065      2.12067        -0.134014      1.017461     -0.781277
Ti       5.55069      5.55060     14.38873        -0.842970      1.136732     -0.285120
Ti       5.63661      5.63248      6.24607        -0.458699      0.898532     -0.439009
Ti       5.53120      5.70237     10.20171         0.944800     -0.586777      0.538155
Ti       5.75336      9.43283      2.10218        -1.382745     -1.226570     -0.787131
Ti       5.56530      9.32855     14.36247         0.105750      0.187720     -0.212414
Ti       5.70781      9.38331      6.11086         0.300739     -0.557579      2.759625
Ti       5.53324      9.36508     10.23042         1.476643      0.807438     -0.935483
Ti       9.33811      1.85497      2.10321         0.434758     -0.135589     -0.395691
Ti       9.31383      1.82698     14.41517         0.295342     -0.238131     -0.246239
Ti       9.41194     13.03594      2.12308        -0.442502      0.196662     -1.062522
Ti       9.36282     13.04790     14.38302         0.645353      0.380465      0.620922
Ti       9.33855      1.86236      6.07347         0.059671     -0.480446     -0.728454
Ti       9.30417     13.09749      6.12241         1.430927      1.343730      0.651892
Ti       9.27217      1.84304     10.34598         1.081232      0.818113      0.093659
Ti       9.37036     13.20725     10.25383         0.630063     -0.233761     -0.543691
Ti       9.46811      5.62044      2.06780        -1.016150     -0.384040     -0.390640
Ti       9.27203      5.60279     14.46288         0.430307      0.172053     -1.113381
Ti       9.35692      5.53107      6.10879         0.149801      1.503622      0.989804
Ti       9.35139      5.56392     10.24684        -0.810049      0.230202      0.148538
Ti       9.48302      9.26486      2.00142         0.284771      0.481228      0.099589
Ti       9.35219      9.28974     14.31282         0.012801      0.607720     -0.162338
Ti       9.44163      9.34405      6.21553        -0.178914     -1.334336     -0.799874
Ti       9.35053      9.38206     10.19157        -0.338709     -0.362175      0.372791
O       1.67655      1.83762      0.40571         0.346976     -0.210423     -1.319729
O       1.73875      1.83093     12.51813         0.114385      0.532833      0.565834
O       1.81096     12.98024      0.30918         0.674888      0.715402      0.051097
O       1.79870     13.16784     12.56918         0.262449     -0.195373      0.351156
O      13.18580      1.81948      0.24713        -0.357607     -0.210209     -0.044070
O      13.18221      1.96488     12.49535        -0.101503      0.128358      0.478034
O      13.19116     13.14243      0.31890        -0.464482      0.159161     -0.614165
O      13.18440     13.06246     12.56419        -0.364244      0.088314     -0.225754
O       1.92408      1.69916      4.31081        -0.061550      0.811615     -0.559625
O       1.99151     13.18401      4.32977        -0.617576     -0.436993     -0.418388
O      13.11898      1.83672      4.37133        -0.273330     -0.033840     -0.026291
O      12.99882     13.09253      4.34970         0.441108     -0.076899     -0.008679
O       1.81931      1.83086      8.39261         0.621520     -0.076252      0.317893
O       1.82003     13.10915      8.39770         0.097785      0.444745      0.124131
O      12.99731      1.78132      8.46735         0.128410      0.453289     -0.281060
O      13.07741     13.05244      8.49877         0.308221      0.484224     -0.241394
O       2.07053      5.65873      0.27285        -0.661424     -0.175392     -0.114538
O       1.89235      5.57122     12.41147        -0.217906     -0.103341      1.699296
O      13.12779      5.67188      0.18602        -0.371411     -0.171003     -0.418158
O      13.03385      5.56533     12.55349         0.404945     -0.248820     -0.426983
O       1.62300      5.57758      4.34671         1.007019      0.304639      0.039163
O      13.13471      5.51590      4.28312         0.308524      0.291224      0.927594
O       1.77152      5.52691      8.49948         0.323167      0.579384     -0.975512
O      13.14086      5.63360      8.43590        -0.383798      0.065308      0.122928
O       1.88414      9.43596      0.25548         0.200410     -0.466382      0.039831
O       1.75152      9.39869     12.44992         0.424600     -0.423726      0.824675
O      13.20037      9.40735      0.13905         0.109852     -0.816324      0.785230
O      13.19433      9.39862     12.44668        -0.627755     -0.026172      0.796265
O       1.85569      9.37408      4.43740        -0.088982     -0.131426     -0.711603
O      13.27219      9.35331      4.31503        -0.359782      0.250339      0.535798
O       1.98166      9.40044      8.47158        -0.503117     -0.207538      0.544010
O      13.04967      9.25930      8.33787        -0.032766      0.164615      1.489431
O       5.76516      1.78900      0.28898        -0.597548     -0.012783     -0.971559
O       5.63908      1.95191     12.51136        -0.178583     -0.041983      0.227502
O       5.61499     13.23639      0.19922         0.223438     -0.386056      0.180095
O       5.48357     13.13740     12.45586         0.396830      0.094588     -0.279556
O       5.56646      1.92315      4.35541         0.239177      0.073029      0.278893
O       5.56260     13.17246      4.23768         0.220747     -0.597174      1.485796
O       5.60504      1.84812      8.37955        -0.274414      0.084310      0.358633
O       5.63871     13.13051      8.37872        -0.005658      0.416899      0.181407
O       5.67380      5.57754      0.27910        -0.633976      0.031242     -0.424598
O       5.46912      5.58381     12.54018         0.384613     -0.195238     -0.272750
O       5.59264      5.67517      4.37580         0.243070     -0.424118      0.115549
O       5.45793      5.84267      8.39361         0.919786     -0.712829      0.104103
O       5.71949      9.37200      0.18396        -0.305774      0.143743      0.488176
O       5.62645      9.35056     12.52909        -0.201195     -0.033197      0.155268
O       5.67307      9.48118      4.33332         0.194818     -0.356056     -1.626049
O       5.53761      9.41793      8.38043         0.176672     -0.551263      1.304878
O       9.33043      1.93235      0.22749         0.397785     -0.010545     -0.227567
O       9.24644      1.66425     12.51372         0.052860      0.487045      0.581743
O       9.39000     13.00825      0.24576        -0.014180      0.007679      0.344668
O       9.40551     13.11795     12.53293         0.046525      0.256267     -0.218097
O       9.37053      1.90155      4.22948         0.066282     -0.193105      0.331767
O       9.40655     13.08580      4.29777         0.202322      0.089717     -0.035791
O       9.36238      1.87632      8.48861        -0.080185      0.492118      0.125246
O       9.25711     13.18489      8.43153         0.176339     -0.310193      0.113383
O       9.30854      5.51989      0.19289         0.720629      0.514717      0.358127
O       9.32926      5.69071     12.62265         0.018829     -0.216496     -0.589283
O       9.37436      5.50747      4.27753        -0.014061      0.654564      0.007040
O       9.43130      5.54020      8.38914        -0.207184      0.026778      0.531389
O       9.34485      9.30978      0.11883        -0.024447      0.125261      1.382274
O       9.37842      9.37243     12.44034        -0.053171     -0.170889      0.411219
O       9.44774      9.28517      4.31314        -0.218562      0.307010      0.410623
O       9.39601      9.32885      8.34276        -0.110340      0.107472      0.823153
O       3.76805      1.52740      2.22671        -0.086333      0.282031      0.193760
O       3.71365      2.14332     14.64116        -0.079234     -0.495326     -0.268131
O       3.78614     13.41156      2.25795        -0.335127      0.337253     -0.202926
O       3.77022     12.84576     14.54832        -0.256470     -0.027118      0.435840
O       0.00867      2.03558      2.51031        -0.975501     -0.188757     -0.197043
O      14.88418      1.61394     14.58056         1.979575     -0.333594      0.462278
O       0.03153     12.85884      2.38177        -1.128781     -0.132659      0.195198
O      14.99793     13.29871     14.80141        -0.331496      0.286843     -0.524140
O       3.80034      1.57872      6.33564        -1.866751      0.513881      0.336043
O       3.68736     13.17926      6.35299         0.307717      0.522068      0.411324
O       0.01038      1.99385      6.38373        -1.967285      0.320182      0.073733
O      14.94544     12.95007      6.40916         0.148401      0.500896     -0.127334
O       3.68683      1.64477     10.62848         0.596946      0.016100     -0.708889
O       3.68233     13.55079     10.42124         0.909614     -0.736776      0.081830
O      14.96190      2.27050     10.39434         0.530431     -0.292624      0.454301
O      14.97297     12.87182     10.40099         0.359585      0.232904      0.477110
O       3.76911      5.83635      2.40140        -0.384148      0.004981      0.243305
O       3.67895      5.25475     14.57250        -0.028069      0.046595     -0.138572
O       0.00984      5.30668      2.15192        -0.241708      0.026642      0.276399
O      14.98039      5.89544     14.60232        -0.004658     -0.746499     -0.260618
O       3.72938      5.85911      6.41676        -0.494777     -0.225917     -0.201768
O       0.01290      5.36278      6.44445        -1.220971      0.291137      0.239766
O       3.70347      5.96559     10.46722         0.174405      0.333276     -0.000094
O      15.00436      5.47213     10.48903        -1.230494     -0.783857      0.435235
O       3.80296      9.06778      2.30695         0.169450      0.283847      0.129486
O       3.65517      9.61285     14.48706         1.967556      0.057069      0.367182
O       0.10336      9.75275      2.24740        -0.349418     -0.370736      0.304839
O       0.02588      9.10052     14.50513        -1.079844     -0.239712      0.361406
O       3.80088      9.27739      6.38256        -0.356953      0.024969     -0.153958
O       0.01247      9.37574      6.56266         0.237646      0.414275     -0.057384
O       3.75465      9.10215     10.58735        -0.919470      0.367967     -0.169464
O      14.91491      9.63957     10.41513         0.728599     -0.094001     -0.249065
O       7.53921      2.15828      2.33620        -0.803721     -0.046745     -0.021352
O       7.46301      1.60614     14.55113        -0.487755     -0.334043      0.276355
O       7.54417     12.98809      2.32267         0.259233     -0.762536      0.160957
O       7.47577     13.35810     14.50782         0.767396      0.179712      0.179908
O       7.52589      2.01854      6.40849        -1.870943      0.270179      0.552224
O       7.48147     12.88374      6.18696        -0.277743      0.356095      0.341736
O       7.44750      2.20771     10.49072        -0.456084      0.264530     -0.080986
O       7.42248     12.89212     10.50063         1.614862      0.411633      0.065059
O       7.54710      5.39792      2.27124         0.015967      0.178736      0.372319
O       7.43376      5.91214     14.56350         0.020005     -0.282935     -0.107985
O       7.50762      5.46796      6.42649        -0.582185     -0.258841      0.343474
O       7.44706      5.42703     10.49543         0.302476     -0.179174     -0.283454
O       7.57575      9.39112      2.29787         0.027100      0.556628      0.154585
O       7.48442      8.99929     14.49144        -0.036071      0.167260      0.169959
O       7.53449      9.59872      6.39399        -0.315033     -0.324723     -0.202827
O       7.42858      9.77331     10.50221         1.139859     -1.277386     -0.690097
O      11.27088      1.67702      2.29781        -0.190708     -0.009497      0.038889
O      11.20622      2.14796     14.46074         0.033486     -0.099341      0.478123
O      11.29034     13.24403      2.36567        -0.474398      0.201177     -0.139214
O      11.30806     12.84447     14.68716        -1.987257     -0.126575     -0.108359
O      11.12987      1.61812      6.40819         2.194933      0.525591     -0.038931
O      11.24753     13.34565      6.54414        -0.683640     -0.776930     -0.516784
O      11.19746      1.61539     10.73600        -0.336689      0.337620     -0.898293
O      11.26344     13.54491     10.40831        -1.181038     -0.648532      0.625556
O      11.35408      5.95669      2.34713        -0.379291     -0.686205     -0.496641
O      11.13858      5.28065     14.55820         2.037350      0.185041      0.381401
O      11.26820      5.73218      6.35594        -0.718840     -0.023022      0.135356
O      11.23544      5.88398     10.61406        -0.483110     -0.251461     -0.727316
O      11.37434      9.02692      2.19951        -0.290720      0.183332      0.117012
O      11.17359      9.56769     14.68959         1.509857      0.103932     -0.854464
O      11.26222      9.27892      6.38353         0.483621     -0.347689     -0.029336
O      11.21815      9.08038     10.50315        -0.379153      0.426307     -0.193414
O       2.05268      3.72980      2.35586         0.640230     -1.280262      0.436843
O       1.60172      3.65691     14.68623        -0.267557      1.363619     -0.327181
O       1.58518     14.91176      2.45795        -0.050554      1.412380     -0.315214
O       2.08452     14.98160     14.56364        -0.003570      0.659897      0.650068
O      12.94385      3.69894      2.24868        -0.255754      0.581249     -0.025973
O      13.35970      3.70936     14.64812        -0.229144      0.889876     -0.212907
O      13.28749     14.99959      2.45689         0.320302     -0.976530     -0.246149
O      12.79178     14.96915     14.49731         0.172775      0.893150      0.529914
O       2.08384      3.75343      6.29671         0.245536     -0.607651      0.253183
O       1.65743      0.04784      6.36720         0.264985     -1.471410      0.467567
O      12.87602      3.68734      6.48981         0.452365      0.252551      0.049046
O      13.25988     14.98319      6.54114        -0.135776     -0.028235     -0.917780
O       2.15876      3.75259     10.35764        -0.106200     -0.587201      0.793006
O       1.54757     14.96131     10.59426        -0.108722      1.208639     -0.541793
O      12.76322      3.75385     10.43849         0.193877      0.513117      0.078850
O      13.38957      0.09586     10.60124         0.132406     -1.655225     -0.253929
O       1.57732      7.46193      2.40727         0.406079      0.604953     -0.391796
O       2.21304      7.44059     14.59034        -0.543318     -0.285503     -0.160194
O      13.60022      7.50554      2.31379        -0.423744     -0.918086     -0.281119
O      12.96321      7.48746     14.53897        -0.712612     -0.566128      0.177145
O       1.76060      7.50661      6.42172        -0.361054     -0.563417      0.440079
O      13.23430      7.46113      6.31161         0.026116     -0.515684      0.330651
O       1.49323      7.56254     10.57574         0.676396     -1.045042     -0.424958
O      13.30817      7.48597     10.51621         0.037411      0.087113     -0.007740
O       2.22677     11.22806      2.47358        -0.280316     -0.171224      0.157938
O       1.61266     11.23317     14.55913         0.022829     -0.421966      0.127735
O      12.95984     11.15941      2.30861        -0.232610      0.958538      0.124803
O      13.30625     11.22099     14.59421         0.147843     -0.229564      0.145561
O       1.91472     11.24092      6.44758         0.049000      0.432559     -0.258912
O      13.02514     11.20860      6.50728        -0.246638      0.333155     -0.333144
O       2.03354     11.25243     10.54720         0.395114      0.627122     -0.077704
O      12.86666     11.26412     10.44897        -0.873379     -0.017621      0.200620
O       5.40138      3.76102      2.37559         0.039485     -0.923246      0.133197
O       5.86216      3.74110     14.58549         0.179856     -0.983248      0.205953
O       5.97731     14.98249      2.36848        -0.307228      1.186610     -0.391010
O       5.28501     14.96654     14.49806         0.507664      0.704286      0.147261
O       5.35026      3.83952      6.49903         0.419402     -1.959206     -0.005684
O       5.83428     14.98225      6.34483        -0.144037      0.220106      0.166782
O       5.34376      3.83759     10.22777        -0.224823     -0.823415      0.799681
O       5.92272      0.07479     10.45691        -0.355012     -0.311414     -0.004697
O       5.80958      7.47054      2.35714         0.201993      0.694708      0.184224
O       5.34788      7.42165     14.64719        -0.215635      0.925818     -0.121475
O       5.76593      7.52460      6.44588         0.254533      0.474497     -0.386862
O       5.91144      7.54003     10.50984        -0.209655      0.215380     -0.150246
O       5.36175     11.25906      2.25694         0.471725     -0.712969      0.054949
O       5.90841     11.23095     14.50226        -0.187251     -0.288493      0.469145
O       5.52717     11.24868      6.53672        -0.285291      0.355039     -0.678898
O       5.39044     11.29753     10.43551        -0.847436     -0.122230      0.392413
O       9.63545      3.79610      2.32820         0.366890     -0.682655     -0.349075
O       9.06534      3.71312     14.61594        -0.122619     -0.155593     -0.526395
O       9.28173      0.00904      2.21666        -0.249971     -0.983548      0.285255
O       9.63070     14.94956     14.74807        -0.187009      0.098994     -0.431415
O       9.42215      3.69727      6.26993         0.809836      0.688291      0.725881
O       9.19493      0.03234      6.42069        -0.443002     -1.719985     -0.192525
O       9.64316      3.74731     10.46813        -0.133785     -0.169291      0.389832
O       8.95419      0.01789     10.34145         0.084512     -0.510191      0.825461
O       9.32408      7.41510      2.39887        -0.713326      1.025654     -0.218389
O       9.74120      7.49001     14.65634        -0.910475     -0.723683     -0.267767
O       9.13789      7.44073      6.34888         0.444498      0.256699      0.214645
O       9.12810      7.46981     10.34798        -0.173859      0.875137      0.359516
O       9.62622     11.11158      2.34838        -0.110734      0.717838     -0.059005
O       9.07426     11.20428     14.56067         0.154517      0.157897     -0.010502
O       9.41349     11.23529      6.39299         0.901030      0.796274      0.085904
O       9.63649     11.27719     10.41232        -0.000119      0.190353      0.241102
