  # total energy = -7865.75364818 
CRSYTAL
PRIMVEC
    15.010000000000000    0.0000000000000000    0.0000000000000000
     0.0000000000000000   15.010000000000000    0.0000000000000000
     0.0000000000000000    0.0000000000000000    16.400000000000000
PRESSURE
16.7427 16.6208 7.10223 0.069466 0.129568 0.027976
PRIMCOORD
320 1
Pb       3.87378      3.72147      4.27218        -0.145211      0.066960     -0.383731
Pb       3.67160      3.75903     16.38458        -0.275835     -0.423251      0.278012
Pb       3.68966      0.00596      4.16604         0.705563     -0.109553     -0.570619
Pb       3.82132     14.92641      0.01937        -0.457949      0.430253      0.368787
Pb      14.92064      3.77230      4.14874        -0.076227      0.050928     -0.587383
Pb      14.91382      3.61458     16.38874         0.893717     -0.029832      0.563510
Pb      14.92883      0.03029      4.28013        -0.042244     -0.033424     -1.076494
Pb      14.99242     14.89332      0.13971         0.352926      0.935155      0.218138
Pb       3.50546      3.76411      8.26610         1.144467      0.190061     -0.345183
Pb       3.64398      0.05569      8.14633         0.379638     -0.682463     -0.011850
Pb      14.84081      3.82655      8.34933         0.159556     -0.646259     -0.235957
Pb      14.84253     14.96514      8.18050         0.189304      0.371932     -0.441317
Pb       3.63126      3.71108     12.35213         0.095966     -0.209334     -0.163208
Pb       3.65568     14.93496     12.39629        -0.055952      0.153815     -0.341904
Pb      14.93139      3.77620     12.43174         0.436067     -0.098741     -0.901319
Pb      14.98677     14.96512     12.34349         0.832322     -0.327270      0.685248
Pb       3.86478      7.44959      4.18926        -0.463166     -0.148189     -0.710423
Pb       3.77006      7.49391      0.09055        -0.147196     -0.342381     -0.232759
Pb       0.07035      7.51927      4.18234        -0.062558     -0.435962      0.068892
Pb      14.95275      7.48477      0.03346         0.617473      0.091493     -0.347843
Pb       3.75881      7.50819      8.16152        -0.122495      0.085452     -0.169745
Pb       0.01206      7.53631      8.36901         0.017793     -0.120834     -0.486290
Pb       3.63818      7.52522     12.28813         0.241570     -0.093423      0.288912
Pb      14.89554      7.42556     12.32671         0.284101      0.471060      0.030806
Pb       3.82231     11.11685      4.37663        -0.164964      0.955494     -1.278297
Pb       3.77334     11.13408     16.37915         0.075676      0.625113      0.501968
Pb       0.16317     11.14503      4.14272        -0.620318      0.318243     -0.399340
Pb       0.02461     11.33308      0.10590         0.001018     -0.521855     -0.361655
Pb       3.79908     11.28055      8.20251         0.052055     -0.045973     -0.095783
Pb       0.07641     11.27016      8.20459        -0.268285      0.037231     -0.016706
Pb       3.75864     11.28523     12.26211        -0.296343      0.003751     -0.166759
Pb       0.02705     11.28572     12.33303        -0.054189     -0.239354      0.104970
Pb       7.45265      3.79224      4.03249        -0.194257     -0.416891      0.415269
Pb       7.48135      3.70032     16.37489         0.230690     -0.285860      0.296816
Pb       7.51178     14.89136      4.15684        -0.752058      0.057577     -0.507309
Pb       7.38045     14.94177      0.00505         0.786949      0.089693      0.511309
Pb       7.37069      3.66756      8.18072         0.318405      0.848092      0.217375
Pb       7.46475      0.24348      8.16204         0.522878     -1.337995      0.375188
Pb       7.30405      3.79948     12.37056         0.753112     -0.079364     -0.333530
Pb       7.44379     14.89699     12.33857         0.356900      0.631231     -0.172263
Pb       7.54393      7.50228      4.10030         0.384999     -0.354368     -0.536517
Pb       7.52721      7.48993     16.30308        -0.714695      0.151684      0.765460
Pb       7.50178      7.41878      8.34062         0.487835      0.160900     -0.245683
Pb       7.45486      7.61251     12.35319         0.282019     -0.791625     -0.785311
Pb       7.68672     11.16355      4.22956         0.066132      0.476295     -1.169505
Pb       7.50206     11.24651     16.36961         0.146396      0.157892      0.534845
Pb       7.62828     11.33334      8.10844        -0.523004     -0.155189      0.354704
Pb       7.47372     11.29867     12.15819         0.106377     -0.405616      0.563300
Pb      11.05664      3.83223      4.14783         1.056355     -0.399578     -0.601738
Pb      11.28553      3.72887      0.01196        -0.810269     -0.793944      0.148938
Pb      11.28931     14.95582      4.13639         0.073484      0.123971     -0.404696
Pb      11.24209     14.94166      0.09471        -0.621398      0.021000     -0.581204
Pb      11.18970      3.72561      8.26680        -0.189476     -0.112466     -0.276898
Pb      11.16600      0.06157      8.23602        -0.151469     -0.445566     -0.696711
Pb      11.17311      3.70499     12.36874        -0.561884      0.546487     -0.238603
Pb      11.22893      0.07945     12.43416        -0.736874     -1.200355      0.076917
Pb      11.44369      7.48829      4.20872        -0.228389      0.010677     -0.379221
Pb      11.26138      7.46261      0.07303         0.024674      0.528166     -0.533437
Pb      11.25066      7.46144      8.26269        -0.392953      0.125621     -0.343582
Pb      11.26153      7.43718     12.29870        -0.759893      0.685250      0.171595
Pb      11.42532     11.11184      4.13748        -0.399374     -0.178989     -0.371310
Pb      11.35757     11.11680     16.38060        -0.467246      0.375828      0.394506
Pb      11.32612     11.31228      8.30918        -0.417799     -0.287654     -0.697232
Pb      11.21956     11.25659     12.28481         0.006882      0.074680     -0.036119
Ti       1.82665      1.85711      2.21170        -0.083927     -0.752191     -1.492501
Ti       1.77448      1.83948     14.38091         0.874585      0.226839      0.455511
Ti       1.86440     13.10069      2.26913         0.649594      0.038638     -0.876821
Ti       1.87496     13.08555     14.51945        -0.506579     -0.138366     -0.991635
Ti      13.07148      1.86708      2.08261         0.959736     -0.629875     -0.045239
Ti      13.08532      1.86162     14.30303        -0.101350     -0.360849      3.538112
Ti      13.10144     13.10305      2.06912         0.782087     -0.226076      1.199461
Ti      13.09201     13.10118     14.43406        -0.043787     -0.268609     -0.217503
Ti       1.80804      1.89589      6.11278        -0.371666      0.015377      0.491852
Ti       1.81604     13.21235      6.15901         0.085370     -1.143485      0.378833
Ti      13.02544      1.85260      6.12554         1.122155      0.447092      0.375297
Ti      13.04658     13.05862      6.14409        -0.192945      0.268638      0.490798
Ti       1.87192      1.76424     10.16725        -1.068000      1.309924      1.376238
Ti       1.85469     13.14590     10.22097         0.915137     -0.554328      0.080251
Ti      13.07421      1.81799     10.36806         0.411285      1.708881     -1.649754
Ti      13.14640     13.15905     10.27594        -0.640559     -1.048673      0.717138
Ti       1.90762      5.52848      2.13639        -0.771539      0.711506     -0.941285
Ti       1.75458      5.63191     14.37558         1.098453     -0.476523      0.283677
Ti      13.15291      5.55970      1.93313         0.981219      0.268562      2.503170
Ti      12.99887      5.60501     14.36017         0.519078      0.343874      0.549809
Ti       1.81005      5.60322      6.19793         0.110354      0.422388     -0.341819
Ti      13.11452      5.56044      6.21152        -0.084073      0.436025     -0.290448
Ti       1.88958      5.57888     10.34368        -1.666650     -0.027228      0.337880
Ti      13.06126      5.63967     10.28360         0.299839     -0.672050      0.480066
Ti       1.98973      9.33010      2.07693        -0.222275      0.382843      0.369951
Ti       1.86171      9.30926     14.34701        -1.111148      0.260465     -0.640216
Ti      13.30337      9.30089      2.04501        -0.922219      0.492925      0.095013
Ti      13.12182      9.35002     14.35590         0.236688      0.875630     -0.323463
Ti       1.92809      9.35890      6.26406        -0.281225     -0.046595     -0.024294
Ti      13.22396      9.31447      6.25944        -0.949538      0.187647     -0.713216
Ti       1.80745      9.39819     10.32763        -0.445326     -0.212392      0.301405
Ti      13.06763      9.37761     10.27513        -0.049151      0.247163      0.297071
Ti       5.61418      1.87817      2.12674        -0.579182     -0.595721     -0.895132
Ti       5.56814      1.84549     14.34006        -0.016817     -0.163172      0.370134
Ti       5.59033     13.13317      2.13616         0.732617     -0.397270     -0.034350
Ti       5.62741     13.11241     14.28595         0.028683     -0.186077      0.543515
Ti       5.59031      1.86089      6.26811         0.105749      0.833021     -1.333961
Ti       5.58231     13.15059      6.22988         0.723028     -0.029796     -1.076130
Ti       5.58564      1.92463     10.25226        -0.223300     -0.399070      0.151402
Ti       5.64888     13.19599     10.18579        -0.978812      0.243554     -0.048934
Ti       5.61797      5.59130      2.06195         0.588634      0.688788      0.853910
Ti       5.50355      5.55519     14.38377         0.138092      0.703148     -0.340183
Ti       5.63255      5.67073      6.20207        -0.672409     -1.894301      0.026952
Ti       5.55636      5.71903     10.21784         0.463075     -1.223898      0.445578
Ti       5.72791      9.38341      2.12058        -0.086035      0.426892     -1.020464
Ti       5.57224      9.34179     14.36320         0.393889      0.105515     -0.254301
Ti       5.72913      9.38337      6.09485        -0.478930     -0.181707      2.021043
Ti       5.50976      9.37202     10.22891         1.958286      0.925788      0.048274
Ti       9.31932      1.83581      2.12887         0.096242      0.626071     -1.230900
Ti       9.29324      1.81738     14.41705         0.133338     -0.173363     -0.355598
Ti       9.45485     13.06147      2.12170        -2.089759     -1.185887     -1.552134
Ti       9.33877     13.03420     14.43247         1.258925      0.378032      0.033897
Ti       9.34954      1.83588      6.07328        -0.052651     -0.163494      0.722962
Ti       9.33838     13.08091      6.10806         0.878582      0.937664      0.684382
Ti       9.30722      1.85832     10.34860        -0.686086      0.102412      0.225421
Ti       9.36604     13.20102     10.22470         0.220409     -0.329722     -0.094663
Ti       9.42120      5.65102      2.06169        -0.117085     -1.994307     -0.048564
Ti       9.28070      5.61266     14.47183         0.564099     -0.700707     -1.661098
Ti       9.33811      5.55935      6.11471         0.512332      0.415301      0.380943
Ti       9.33360      5.56064     10.28619        -0.369047      1.227706     -0.355263
Ti       9.47953      9.23951      1.99089        -0.331627      1.699667      0.201545
Ti       9.32568      9.25893     14.31816         0.966674      1.501503     -0.541274
Ti       9.39728      9.27244      6.23569         1.250488      0.526811     -0.400351
Ti       9.31186      9.41531     10.24331         0.039652     -1.143218      0.600278
O       1.69212      1.84468      0.34872         0.393499     -0.016215     -0.061513
O       1.69616      1.87166     12.54158         0.531751      0.111209      0.375543
O       1.79362     12.99610      0.32530         0.715898      0.372625     -0.283465
O       1.74914     13.19016     12.56465         0.432418     -0.268429      1.291799
O      13.18557      1.78225      0.19428        -0.477470      0.040793      0.717083
O      13.16293      2.05368     12.58582        -0.029926     -0.474721     -2.343895
O      13.08142     13.09899      0.24619         0.057794      0.414564      0.465888
O      13.13442     13.08443     12.59767        -0.136962      0.013501     -0.404856
O       1.85886      1.68231      4.31555        -0.023764      1.109191      0.317156
O       1.95700     13.15805      4.32567        -0.331210     -0.386921      0.876400
O      13.10716      1.83382      4.31454        -0.257705      0.202013      0.424026
O      12.99180     13.03871      4.33976         0.307555      0.171111      0.556429
O       1.83140      1.86031      8.35698         0.181407     -0.278135      0.314451
O       1.92933     13.19342      8.37600        -0.310173     -0.143852      0.488677
O      12.95592      1.81100      8.44475         0.358706     -0.063791      1.769229
O      13.05969     13.04009      8.48795         0.426978      0.740299     -0.255007
O       2.02958      5.62846      0.20974        -0.482313      0.032567      1.215533
O       1.95319      5.54389     12.46810        -0.512503      0.047473      0.843435
O      13.12506      5.69834      0.17911        -0.028129     -0.120273     -1.029358
O      13.11794      5.52371     12.53875        -0.402156      0.362599      0.161342
O       1.70242      5.57352      4.38134         0.657001      0.145577     -0.153486
O      13.08498      5.57800      4.39510         0.491125     -0.241135     -0.490375
O       1.78249      5.50233      8.51194         0.023124      0.509082     -0.650786
O      13.20319      5.66416      8.45511        -0.702636      0.167797     -0.101274
O       1.89204      9.38623      0.24725         0.281848     -0.184994      0.011096
O       1.75523      9.46360     12.47670         0.463426     -0.725254      0.637894
O      13.22196      9.37764      0.16498         0.105447     -0.661842      1.165985
O      13.19753      9.39925     12.47590        -0.565356     -0.029411      0.814658
O       1.83844      9.38212      4.41865         0.029787     -0.227285      0.204577
O      13.26795      9.37856      4.26725        -0.203590     -0.107217      1.062992
O       1.96677      9.32789      8.51602        -0.262002      0.308079     -0.658246
O      12.99874      9.26350      8.42891         0.419554      0.242076      0.122539
O       5.73640      1.73111      0.22754        -0.486985      0.435986      0.588315
O       5.63354      1.94637     12.51005        -0.236157      0.077632     -0.236040
O       5.63191     13.23824      0.17783         0.036776     -0.362961      0.705717
O       5.51062     13.14454     12.45695         0.285361     -0.093421      0.356360
O       5.66892      1.96172      4.40976        -0.435705     -0.266177      0.000181
O       5.56597     13.17518      4.36321         0.077496     -0.379510     -0.319586
O       5.71190      1.87320      8.33379        -0.875077     -0.249105      1.329070
O       5.57223     13.13415      8.32769         0.186545      0.354236      0.940149
O       5.61572      5.63653      0.27222        -0.391692     -0.226786     -0.593352
O       5.49565      5.58409     12.52075         0.162963     -0.134824      0.353341
O       5.55359      5.58802      4.34576         0.300566      0.237527      0.788106
O       5.46905      5.83268      8.41840         0.648433     -0.675827      0.099437
O       5.69765      9.39880      0.20842        -0.264731     -0.129554      0.196284
O       5.65240      9.33684     12.52170        -0.417179      0.204206      0.356627
O       5.72276      9.44642      4.30598         0.029992     -0.362384     -0.376436
O       5.57901      9.36993      8.42470        -0.130857     -0.217555     -0.050164
O       9.28655      2.01051      0.23376         0.395190     -0.563323      0.532805
O       9.20834      1.72183     12.52394         0.521187      0.306109      0.361128
O       9.35541     13.05600      0.18794         0.108929     -0.288218      1.184000
O       9.39736     13.13681     12.56939         0.217907      0.107844     -0.056180
O       9.31152      1.83463      4.28383         0.292211     -0.144946     -0.449428
O       9.46435     13.06577      4.28730        -0.270532      0.235399     -0.143872
O       9.42267      1.83652      8.49005        -0.076877      0.518857      0.004692
O       9.25714     13.16324      8.41797         0.265858     -0.185760      0.161009
O       9.38985      5.50055      0.20979         0.134148      0.690708      0.003625
O       9.37823      5.71566     12.56540        -0.198315     -0.348442      0.481969
O       9.37411      5.50959      4.23831         0.224323      0.740359      1.009383
O       9.44693      5.59016      8.39654        -0.251865     -0.147979      0.432020
O       9.32992      9.27237      0.14719        -0.129889      0.026053      0.830335
O       9.30639      9.34097     12.40556         0.272627     -0.262357      1.390739
O       9.42031      9.27883      4.36737        -0.300422      0.157692      0.505487
O       9.33747      9.33892      8.43092         0.179115      0.121281     -0.943007
O       3.76363      1.60857      2.28345        -0.202084      0.466237      0.157152
O       3.74273      2.14133     14.73134        -0.851228     -0.590517     -0.713153
O       3.76724     13.33432      2.27627         0.273078      0.427643     -0.066145
O       3.77732     12.92477     14.61283        -0.978460     -0.519454      0.106107
O      14.92232      1.91882      2.45357         0.835551      0.514613      0.052123
O      14.97812      1.59587     14.64801        -0.616045      0.098848     -0.097011
O       0.02839     12.94912      2.42430        -0.780837     -0.353923     -0.236466
O      14.95803     13.23846     14.84079         0.822608      0.329870     -0.858940
O       3.74253      1.57509      6.37140        -0.637354      0.435258      0.017097
O       3.71842     13.25890      6.37654        -0.591582      0.110048      0.316365
O      14.93245      1.95840      6.34580         0.923081      0.234242      0.270314
O      14.92635     12.95967      6.48477         0.829859      0.515217     -0.228711
O       3.70926      1.63724     10.61851         0.055076     -0.094164     -0.714880
O       3.71775     13.47219     10.54349         0.207737     -0.626271     -0.410605
O      14.93445      2.21371     10.42991         0.471063     -0.427409      0.156292
O       0.02234     12.90545     10.47496        -1.273366      0.229671     -0.132870
O       3.75322      5.76415      2.44019        -0.125814      0.221127     -0.168036
O       3.68512      5.30715     14.57051         0.679757      0.136407      0.036438
O       0.04584      5.30300      2.22192        -0.589967      0.167151      0.143482
O      14.97669      5.78868     14.57307        -0.627828      0.345616      0.041245
O       3.69411      5.81393      6.46329         0.026568     -0.111380     -0.347606
O      14.95926      5.40638      6.42900         0.808353     -0.188614      0.339882
O       3.66040      5.98975     10.48507         1.034891     -0.151487     -0.165528
O      14.93879      5.42177     10.55024         0.620011     -0.199610      0.087985
O       3.85231      9.15070      2.34252        -1.139501     -0.342826      0.062192
O       3.70315      9.56401     14.54084         1.025423      0.049527      0.163960
O       0.07369      9.74421      2.21281         0.858866     -0.548485      0.324200
O      14.99448      9.14941     14.51215         0.095144     -0.569910      0.486730
O       3.83330      9.25136      6.32964        -0.859248     -0.048733      0.185322
O      15.00728      9.40531      6.63756         0.928970      0.609636     -0.117173
O       3.73632      9.25305     10.58529        -1.063840     -0.302046      0.154051
O      14.92029      9.68263     10.40442         0.666957     -0.317260     -0.148683
O       7.44213      2.08925      2.39995         1.911315     -0.006118     -0.272760
O       7.48685      1.66150     14.57938        -1.233076     -0.403762      0.215599
O       7.51768     12.92209      2.33038         0.221685      0.152738      0.337023
O       7.52157     13.34119     14.53762        -1.396546     -0.001255      0.099683
O       7.49440      2.10285      6.43260         0.628575     -0.449159      0.120601
O       7.49870     12.88287      6.21586        -0.315052      0.433488      0.333857
O       7.42915      2.12722     10.52408         0.414493      0.541773     -0.211691
O       7.45233     12.97687     10.53337         0.300253     -0.420716     -0.053023
O       7.56407      5.40385      2.34983        -1.065882      0.654845     -0.470144
O       7.45800      5.87427     14.64116        -0.629179     -0.495659     -0.374732
O       7.47433      5.48339      6.48245         0.165282     -0.326436     -0.086815
O       7.46541      5.40837     10.48256        -0.739376      0.075478     -0.084725
O       7.56640      9.40198      2.26583         0.388432      0.146021      0.450343
O       7.47615      8.96285     14.45436         0.171607      0.321003      0.576096
O       7.51233      9.61283      6.43333         0.318731     -0.610684     -0.237592
O       7.46396      9.68778     10.47866        -0.445245     -0.476612     -0.175606
O      11.28050      1.74694      2.37292        -1.502319     -0.551624     -0.082710
O      11.19475      2.17457     14.52454         0.893291     -0.416700     -0.038044
O      11.23458     13.27846      2.40754         1.349854     -0.111899     -0.492013
O      11.24964     12.85175     14.76884        -0.282503      0.072764     -0.673630
O      11.24496      1.61906      6.37718        -1.632377      0.304423      0.012886
O      11.18787     13.28416      6.49368         0.804705     -0.009286      0.002847
O      11.17963      1.76390     10.77534         0.669615     -0.749118     -0.675682
O      11.23455     13.43531     10.47938         0.342161      0.177310      0.282214
O      11.39282      5.89305      2.32892        -1.271242     -0.197895     -0.141840
O      11.19910      5.23332     14.63380         0.593680      0.826511     -0.300516
O      11.24713      5.74899      6.35946        -0.802851      0.211329      0.235413
O      11.19429      5.93313     10.63343         0.524572     -0.566051     -0.934417
O      11.34797      9.07638      2.19636         0.326570      0.006172      0.244232
O      11.20544      9.50266     14.77459         0.396162     -0.022865     -1.197605
O      11.30055      9.27680      6.39758        -0.955352     -0.485944     -0.022180
O      11.20097      9.10379     10.51533         0.008408      0.201742      0.087684
O       2.01507      3.68853      2.40267         0.485403      0.408206      0.301420
O       1.65620      3.74437     14.70297        -0.243004     -0.506923     -0.355901
O       1.73618     14.97572      2.47486        -0.316112     -0.388319     -0.463251
O       2.10066     15.00055     14.62681        -0.208098     -0.571031      0.166433
O      12.95655      3.71558      2.21982         0.064803      0.634766      0.106126
O      13.37976      3.77827     14.66575        -0.323203     -0.877914     -0.361012
O      13.33628     14.93644      2.51354        -0.759481      0.079360     -0.849277
O      12.81522     14.97602     14.56222         0.170488      0.951789     -0.121534
O       2.11416      3.71425      6.36895        -0.494049      0.014340     -0.132604
O       1.72919      0.01530      6.40572        -0.377998     -0.514528      0.480122
O      12.90201      3.71600      6.52509         0.175042     -0.368934     -0.114630
O      13.24673     14.98224      6.49744        -0.140252     -0.541623     -0.420455
O       2.17846      3.68328     10.40756        -0.440250      0.440838      0.405620
O       1.59306     14.97225     10.55826        -0.278632      1.000418     -0.236753
O      12.82969      3.80145     10.45913        -0.202820     -0.908973     -0.045009
O      13.45797      0.01969     10.64672        -1.016794     -0.066033     -0.626061
O       1.61278      7.49346      2.43737         0.621555     -0.031530     -0.618477
O       2.12373      7.44191     14.64624        -0.045519      0.339274     -0.200944
O      13.61471      7.44908      2.36358        -0.791584      0.361805     -0.827648
O      12.89414      7.51071     14.65745         0.026010     -1.221925     -0.313122
O       1.70012      7.49574      6.45662         0.085106     -0.179416      0.290512
O      13.28445      7.48335      6.36984        -0.210803     -0.549860      0.266908
O       1.52854      7.54058     10.62416         0.475112     -0.489067     -0.420126
O      13.32345      7.51396     10.59501        -0.058029     -0.194386     -0.212993
O       2.24331     11.20088      2.50651        -0.601938      0.106620     -0.280617
O       1.65499     11.14722     14.56612         0.125914      1.769614      0.419261
O      13.06378     11.24099      2.36206        -0.764201     -0.283271     -0.324500
O      13.29388     11.21581     14.68911        -0.103267     -0.121202     -0.227747
O       1.91312     11.24007      6.46511         0.314072      0.307034      0.000199
O      12.97756     11.20777      6.48041         0.123333      0.330106     -0.064275
O       1.97468     11.27589     10.56188         0.774089      0.340064     -0.244900
O      12.85605     11.26301     10.45781        -0.388654      0.449057      0.268462
O       5.47153      3.77282      2.47167        -0.156181     -0.341357     -0.593222
O       5.78968      3.67731     14.61658         0.487509      1.540596      0.116136
O       5.90313      0.05922      2.41197        -0.166795     -1.265362     -0.121477
O       5.29402     14.99388     14.47010         0.582804     -0.224331      0.189638
O       5.37092      3.74369      6.50474         0.185841      0.621436     -0.019837
O       5.85877     14.99341      6.34366         0.040759      0.227544      0.295667
O       5.39512      3.80925     10.22131        -0.519022     -0.119224      0.905729
O       5.92742      0.07499     10.49576        -0.717790     -0.680865     -0.373642
O       5.77633      7.49004      2.41911         0.124963     -0.593557     -0.001840
O       5.38667      7.46465     14.70770        -0.352749     -0.259612     -0.374298
O       5.76598      7.44336      6.47147         0.117815      2.588452     -0.754299
O       5.80851      7.52580     10.54754         0.073162      0.568966     -0.114159
O       5.41678     11.24869      2.29723         0.234824      0.049280      0.018141
O       5.89284     11.23022     14.53740        -0.270781     -0.078886      0.159201
O       5.49874     11.27352      6.46762        -0.263563     -1.216965     -0.208202
O       5.38675     11.30941     10.43989        -0.292675      0.004199      0.218591
O       9.55310      3.76786      2.25445         0.582493     -0.687196      0.571513
O       9.09846      3.72449     14.57459        -0.317723      0.169895     -0.216084
O       9.31533     14.96782      2.17451        -0.515324      0.472079      0.442338
O       9.57311     14.95031     14.72777         0.421222      0.563889     -0.282799
O       9.49496      3.72505      6.23007         0.574332     -0.506183      0.756305
O       9.19657      0.01239      6.51924        -0.106726     -0.308475     -0.802058
O       9.56143      3.73869     10.44100         0.230099     -0.236295      0.534673
O       8.96740     14.99306     10.42072         0.671487      0.877228      0.432746
O       9.28746      7.40333      2.42166        -0.300957      1.540280     -0.100495
O       9.66640      7.44909     14.67644        -0.293763     -0.202129     -0.099335
O       9.18666      7.43291      6.36888        -0.016569      0.678149      0.217254
O       9.07393      7.46898     10.34733        -0.085921      0.716505      0.395953
O       9.57926     11.12023      2.33583         0.103493      0.215422     -0.028913
O       9.10348     11.13865     14.56849         0.009252      0.289352     -0.069467
O       9.46070     11.28653      6.45494         0.439415     -1.333565     -0.039286
O       9.59792     11.30061     10.47500        -0.013625     -0.131658      0.171247
