  # total energy = -7881.61426512 
CRSYTAL
PRIMVEC
    15.3600000000000000    0.0000000000000000    0.0000000000000000
     0.0000000000000000   15.3600000000000000    0.0000000000000000
     0.0000000000000000    0.0000000000000000    17.440000000000000
PRESSURE
1.99701 1.63293 -1.62968 -0.128258 -0.197407 -0.015882
PRIMCOORD
320 1
Pb       3.82783      3.86336      4.22946        -0.106189     -0.072727      0.439441
Pb       3.76710      3.90539     17.34356         0.203337     -0.179355      0.871235
Pb       3.88190      0.00046      4.22062        -0.671155      0.167768      0.594963
Pb       3.98142      0.03702      0.02181        -0.579726     -0.565720      0.279137
Pb      15.23955      3.93726      4.29131         0.445079     -0.813978      0.347935
Pb      15.20289      3.72926     17.36920         0.356241      0.268006      0.261021
Pb      15.24488     15.32445      4.34570         0.368750      0.428982      0.049113
Pb       0.13018      0.01566     17.40550        -0.791814      0.013927      0.335400
Pb       3.96934      3.89039      8.56742        -0.739850     -0.187687      1.051527
Pb       3.77908     15.26303      8.74743         0.187559      0.161703     -0.401603
Pb       0.16057      3.69168      8.65622        -0.798791      0.403010      0.970321
Pb       0.17897     15.29903      8.57417        -1.075438      0.279949      0.759784
Pb       3.88900      3.94825     13.07426        -0.569214     -0.334566      0.641910
Pb       4.02057     15.33959     13.23240        -0.751326      0.081235     -0.096741
Pb      15.24030      3.88449     12.94176         0.371837     -0.327157      0.470043
Pb      15.31679      0.03047     12.99488         0.537569     -0.083147      0.894947
Pb       3.78442      7.65660      4.31330         0.435068     -0.485734      0.169862
Pb       3.85690      7.78315     17.43830         0.080734     -0.064505      0.064021
Pb      15.18772      7.43924      4.29392        -0.065541      1.435018      0.611936
Pb       0.20507      7.65356     17.41677        -0.902193      0.359696     -0.089611
Pb       3.79628      7.57398      8.65184         0.272122      0.225185      0.426760
Pb      15.30004      7.70576      8.63933         0.232290     -0.410518      1.142810
Pb       3.82322      7.83085     13.08844         0.362433     -0.693817      0.232853
Pb      15.31624      7.74551     12.91124         0.023345     -0.074352      0.418267
Pb       3.85622     11.40820      4.35751         0.311585      0.028485     -0.006897
Pb       3.70574     11.43463     17.43787         0.436488      0.253643      0.217060
Pb      15.34275     11.40583      4.28506        -0.272130     -0.245981      0.791400
Pb       0.08929     11.38551      0.09047        -0.049623      0.007052     -0.618784
Pb       3.72844     11.49101      8.66982         0.727054     -0.210701      0.055556
Pb       0.10674     11.62229      8.59456        -0.697810     -0.650721      0.589430
Pb       3.73756     11.58777     12.99899         0.189867     -0.307256      0.802663
Pb      15.12057     11.43302     12.99126         0.621210     -0.294110      0.827029
Pb       7.57442      3.95696      4.24967         0.314466     -0.781926      0.876278
Pb       7.70814      3.83199     17.33754        -0.192732      0.049025      0.632969
Pb       7.56158     15.34064      4.19785         0.510503      0.344862      0.741005
Pb       7.81691     15.25844      0.00588        -0.158614      0.408775      0.191041
Pb       7.71073      3.77100      8.67361        -0.256061      0.258843      0.086221
Pb       7.69664      0.06068      8.67965        -0.362049     -0.488280     -0.112992
Pb       7.48942      3.66352     13.02152         0.981791      0.429712      0.323009
Pb       7.72335     15.05771     13.13225        -0.502402      1.064568      0.392595
Pb       7.59913      7.78706      4.35536        -0.099038     -0.466960      0.420596
Pb       7.77598      7.50181     17.36507        -0.488231      0.928330      0.229431
Pb       7.63794      7.60700      8.70287        -0.227005      0.325477      0.210351
Pb       7.74661      7.62221     13.05934        -0.755633      0.381986      0.250137
Pb       7.66288     11.50606      4.25503        -0.258303     -0.046359      1.114100
Pb       7.69327     11.45003     17.32572        -0.083170     -0.175967      1.169710
Pb       7.76481     11.43338      8.79483        -0.896438      0.004973     -0.374461
Pb       7.57978     11.53250     13.07422        -0.116838     -1.030875      0.377870
Pb      11.58218      3.91323      4.37128        -0.514244     -0.108891     -0.063136
Pb      11.27285      3.78105     17.31770         0.669481      0.297426      0.064201
Pb      11.49246      0.14561      4.30031        -0.356876     -0.158698      0.403012
Pb      11.69946      0.04802     17.32264        -0.385295      0.007198      0.185527
Pb      11.68644      3.70394      8.68197        -0.269570      0.074436      0.676736
Pb      11.51069     15.32358      8.63099         0.097640      0.262025      0.862194
Pb      11.41337      3.91360     12.88587        -0.195126     -0.288007      0.437999
Pb      11.42081     15.29924     13.09416         0.080102     -0.166640      0.042417
Pb      11.53350      7.68011      4.37900         0.194505      0.128001      0.020144
Pb      11.43349      7.66225     17.32429         0.145943      0.246596      0.719243
Pb      11.45793      7.59028      8.65869         0.356633      0.156980      0.601996
Pb      11.62367      7.70210     12.96672        -0.095677     -0.164574      0.284393
Pb      11.39396     11.56574      4.36918         0.191148     -0.378409      0.327143
Pb      11.64442     11.57490     17.40240        -0.391160     -0.393545      0.517842
Pb      11.34614     11.52554      8.75564         0.660442     -0.229536     -0.253995
Pb      11.39045     11.57339     13.03869         0.448215     -0.180792      0.228124
Ti       1.91264      1.88507      2.29944        -0.613704      0.145321      0.829149
Ti       1.92294      1.98226     15.42465        -0.433008     -0.265902     -1.712546
Ti       1.80559     13.38823      2.39218         0.805157      0.313599     -0.792758
Ti       1.86585     13.50846     15.49215         0.981446     -1.307634     -0.087481
Ti      13.44033      1.93816      2.31908        -0.081542      0.441612     -0.432538
Ti      13.41984      1.98148     15.21869        -0.599543     -0.672390      0.744346
Ti      13.37701     13.47108      2.45210        -0.598674     -0.554154     -1.209994
Ti      13.47449     13.41797     15.42296        -0.415310     -0.198851     -0.843461
Ti       1.92981      1.90688      6.64431         0.018605     -0.224649     -1.644639
Ti       1.89710     13.33541      6.57641        -0.210188      1.063653     -0.722384
Ti      13.43060      1.80278      6.73576         0.470751      0.882723     -0.737049
Ti      13.33484     13.33548      6.69416         0.774791      1.068364     -0.517914
Ti       1.92998      1.91318     11.11876         0.033528     -0.339660      0.103098
Ti       1.87494     13.44358     11.09227         0.181641     -0.213946     -0.232543
Ti      13.38267      1.80109     11.09166        -0.094770      0.468302     -1.685430
Ti      13.43403     13.40088     11.10520        -1.057352     -0.465247     -2.123920
Ti       1.83214      5.69748      2.26421         0.663932     -0.259390     -0.310497
Ti       1.94507      5.80332     15.39071        -0.669650      0.300619      0.313111
Ti      13.33644      5.77253      2.27067        -0.957207      1.182251      1.221245
Ti      13.42189      5.77149     15.39394        -0.022846      0.120413     -1.068611
Ti       1.85129      5.73078      6.68779         0.698555      0.764133     -0.497756
Ti      13.44147      5.67730      6.83421         0.032050      0.096747     -0.559802
Ti       1.95249      5.71308     11.05167         0.000373      0.325032     -1.443089
Ti      13.47340      5.66039     11.01857        -1.375985      0.950972     -2.334239
Ti       1.87064      9.51068      2.48519         0.146157      0.224038     -1.957187
Ti       1.90482      9.58088     15.33045        -0.429863      0.884717     -0.065203
Ti      13.34053      9.67180      2.34486         0.877223     -1.683189     -0.294164
Ti      13.38786      9.52377     15.46464         0.828309      0.880572     -0.978889
Ti       1.94201      9.49140      6.67395        -0.458160     -0.022240     -0.232051
Ti      13.41998      9.57416      6.79688         0.106937     -0.360407     -1.115984
Ti       1.97269      9.57304     10.99674        -0.697878     -0.058877     -0.573978
Ti      13.43038      9.59183     10.90579         0.108870     -0.175757     -1.031880
Ti       5.73835      1.92400      2.25305         0.462287      0.346595     -0.809775
Ti       5.77306      1.90782     15.53183         0.218706     -0.612040     -0.753005
Ti       5.63122     13.40039      2.37615         1.265295     -1.147774     -0.802950
Ti       5.76548     13.38359     15.50140        -0.909218     -0.187017      0.043840
Ti       5.67518      1.84596      6.69259         0.674267      0.146780     -1.070203
Ti       5.68344     13.36175      6.68427         0.665672     -0.267071      0.492598
Ti       5.64422      1.83500     11.10689         0.299380      0.164384     -0.431075
Ti       5.69070     13.40584     11.08163        -0.093828      0.249809     -0.340969
Ti       5.71593      5.73988      2.20506        -0.544755     -0.069432     -0.149036
Ti       5.72769      5.72178     15.47295        -0.228712      1.043228     -0.720937
Ti       5.72485      5.76253      6.65864         0.181719     -0.104509     -0.458600
Ti       5.71844      5.75044     11.09618         0.433370      0.819429     -1.137381
Ti       5.79067      9.55928      2.29236        -0.727355      0.270068     -0.433755
Ti       5.74498      9.55413     15.47366        -0.004429      0.160647     -0.540674
Ti       5.75614      9.56003      6.71327         0.494979      0.343835     -0.440081
Ti       5.71092      9.59408     11.04238         1.271389     -0.599230     -0.596317
Ti       9.57388      1.97336      2.35993        -0.663837     -0.265429      0.056643
Ti       9.53280      1.94144     15.32850         0.300825     -0.066657     -1.367837
Ti       9.55725     13.43737      2.37942        -0.498827      0.261656     -1.003795
Ti       9.61993     13.41449     15.47787         0.558044      0.601442     -1.254997
Ti       9.56392      1.93480      6.68123        -0.096758      0.408372     -1.528296
Ti       9.51687     13.44249      6.69331        -0.860007     -0.328324     -0.847605
Ti       9.46540      1.78672     11.10227         0.514990      0.776466      0.282717
Ti       9.52175     13.38125     11.10359         0.098427      0.495311      1.125639
Ti       9.50818      5.79156      2.39516         0.653341     -0.530714     -0.795223
Ti       9.58464      5.85346     15.28814         0.049980     -0.688595     -0.354903
Ti       9.60209      5.70012      6.78929        -1.294109      0.061043      0.076137
Ti       9.57673      5.76624     10.98515        -0.294236     -0.971232      0.416905
Ti       9.56690      9.56029      2.37078         0.662603      0.267460     -1.798404
Ti       9.58532      9.69211     15.38211        -0.452847     -1.369433     -0.151650
Ti       9.57863      9.52467      6.75939        -1.064558      0.493509     -0.326934
Ti       9.58239      9.53877     11.11137        -0.924811      0.375941     -1.244254
O       1.75635      1.97326      0.55235        -0.002226     -0.260519     -0.410234
O       1.89129      1.93554     13.59036        -0.155858      0.083984      2.204533
O       1.87003     13.43458      0.59689        -0.268960     -0.090310      0.942613
O       2.00414     13.47859     13.75016        -0.330053     -0.162611      0.011038
O      13.35462      1.94254      0.52665         0.330225      0.085161      1.043527
O      13.50645      1.97361     13.44455        -0.249705      0.060401      0.556316
O      13.22897     13.35562      0.65188         0.400018      0.449240      0.775484
O      13.30358     13.40412     13.63504         0.487487     -0.192299      0.701066
O       2.07694      1.90735      4.83939        -0.609906     -0.050106      1.462085
O       1.84712     13.39454      4.80640         0.037116      0.028959      0.370951
O      13.45005      1.76173      4.92512        -0.103233      0.363088      0.177196
O      13.42724     13.46670      4.87852        -0.207753     -0.121398      1.090768
O       1.82522      1.82835      9.32778         0.466651     -0.098620      0.575006
O       1.90330     13.43259      9.26138         0.018455     -0.097942      0.983844
O      13.48615      1.89814      9.22986        -0.396788     -0.338324      2.292624
O      13.40464     13.41428      9.26967        -0.030905     -0.212651      1.403776
O       1.84189      5.70649      0.46931        -0.044513      0.273340      1.287967
O       2.05774      5.92254     13.66899        -0.622865     -0.536639     -0.863294
O      13.24519      5.76538      0.58777         0.169396     -0.293252     -1.889033
O      13.41773      5.69842     13.54361        -0.018284      0.223688      1.621046
O       1.97063      5.89748      4.89802        -0.489805     -0.733360      0.424385
O      13.36501      5.81800      4.98955         0.209515     -0.288204      1.122313
O       1.96734      5.61590      9.25631         0.179317      0.617102      1.467312
O      13.45479      5.64717      9.17659        -0.345123     -0.100670      1.069201
O       2.00765      9.62472      0.58783        -0.675439     -0.568655      1.685084
O       1.87743      9.54511     13.55119         0.094707      0.060184     -0.021697
O      13.36056      9.72835      0.57181         0.114675     -0.057224     -0.126364
O      13.50374      9.53364     13.64057        -0.335852     -0.046490      1.112885
O       1.99337      9.51452      4.88077        -0.217983     -0.169555      0.028587
O      13.50100      9.54756      4.98806        -0.407846     -0.051141      1.306538
O       2.02164      9.67067      9.20791        -0.323736     -0.163838      0.600116
O      13.48172      9.62296      9.07809        -0.492917      0.278195      1.673725
O       5.63728      1.91555      0.45505         0.745398     -0.010527      0.720559
O       5.84099      1.75600     13.74666        -0.289759      0.417787      0.757924
O       5.73606     13.32638      0.62034         0.097398      0.126647      0.097333
O       5.70737     13.45687     13.68178         0.040517     -0.252649      1.374068
O       5.77664      1.73808      4.90652        -0.701471      0.376591      0.727571
O       5.69519     13.27078      4.91935        -0.011534      0.613486      0.523336
O       5.59013      2.05376      9.34894         0.233362     -0.825634     -0.010565
O       5.64594     13.46709      9.32911        -0.130957     -0.017679      0.047446
O       5.65493      5.75276      0.41549         0.236998     -0.144613      0.569603
O       5.55378      5.80533     13.68895         0.764466     -0.159641      0.681460
O       5.59228      5.78222      4.88490         0.478906     -0.204774      0.470867
O       5.61381      5.69294      9.26584         0.301398     -0.017281      1.254438
O       5.69349      9.64179      0.50482         0.114203     -0.343889      0.808647
O       5.69154      9.64501     13.69520        -0.014657     -0.347528      0.396920
O       5.80991      9.59789      4.89572        -0.154968     -0.436511      1.236432
O       5.83436      9.44022      9.27658        -0.411402      0.755141      0.338694
O       9.31373      1.98579      0.58777         1.060342      0.141471      0.211645
O       9.49850      1.94647     13.51536         0.039601     -0.118876      1.233871
O       9.45227     13.46124      0.55203         0.645447      0.038497      1.280600
O       9.63369     13.42405     13.61426        -0.203260     -0.125847      1.631018
O       9.60864      2.00022      4.86323         0.284570     -0.347458      1.590414
O       9.49254     13.29138      4.90370         0.300641      0.653236      1.209963
O       9.53598      1.85389      9.32768        -0.270142     -0.224300      0.405742
O       9.38089     13.58666      9.40908         0.429978     -0.388801     -1.641023
O       9.53854      5.77537      0.58090         0.136268     -0.176653      1.209561
O       9.59582      5.97062     13.53594         0.169155     -0.643470      0.138921
O       9.49236      5.67512      5.05922         0.427398      0.107341     -1.109232
O       9.52200      5.69373      9.20599         0.108416      0.223499      0.921316
O       9.66669      9.57941      0.54595        -0.435268     -0.178319      1.873724
O       9.54905      9.54104     13.60477         0.293400      0.342013      0.336938
O       9.47476      9.56227      4.98543         0.324678     -0.162538      0.009880
O       9.44734      9.50841      9.23708         0.718658      0.541508      2.262710
O       3.85690      1.88105      2.54375        -0.355037      0.239831      0.557067
O       3.76602      1.84216     15.85546         0.341599      0.211353     -0.355008
O       3.82254     13.34675      2.76525        -1.282996      0.080734     -0.011815
O       3.84691     13.44152     16.00689         0.281478     -0.046407     -0.875170
O      15.32369      1.93581      2.77284        -0.493021     -0.368552     -0.136113
O      15.22062      1.87094     15.76411         1.351781      0.688741      0.007668
O      15.25869     13.42211      2.68742         0.591623      0.318568      0.220469
O      15.33628     13.37015     15.90239        -0.233301      0.277168     -0.195215
O       3.75497      1.87482      7.09169         0.357941      0.193561      0.080773
O       3.75224     13.30889      7.07078         0.656856      0.738893     -0.027188
O      15.34904      1.90747      7.17849         1.087542     -0.668663     -0.884321
O      15.28862     13.38052      7.05255         0.580047      0.175283     -0.258907
O       3.80105      1.85634     11.63329         0.078029     -0.576596     -0.494758
O       3.78089     13.49746     11.60828        -0.023423     -0.237606     -0.723648
O       0.01971      1.97109     11.52947        -0.559742     -0.275407     -0.413912
O      15.30704     13.24523     11.51306         0.517377      0.598640     -0.459643
O       3.82117      5.61439      2.72464        -0.773741      0.371785     -0.742112
O       3.77282      5.67148     15.76655         0.724874      0.733318      0.476387
O      15.18897      5.78785      2.69400         2.443832     -0.147900     -0.244972
O      15.29945      5.89268     15.74880        -0.118880     -0.675973      0.061216
O       3.80138      5.81993      7.02438         0.169843     -0.165992      0.228981
O      15.33000      5.79533      7.17434         0.041041     -0.221845     -0.730404
O       3.88388      5.79466     11.58674        -0.982085      0.092809     -0.673958
O      15.23350      5.78097     11.38307         2.596219     -0.903624      0.404100
O       3.93328      9.64694      2.73641        -1.476249     -0.815574      0.086995
O       3.78893      9.55265     15.76561         0.439055      0.015819      0.193098
O      15.34915      9.45863      2.78467         0.588902      0.340071     -0.271636
O       0.02111      9.55159     15.78640        -0.670675      0.286284      0.436235
O       3.79722      9.54545      7.06132         0.618657     -0.191388      0.024683
O      15.35068      9.46250      7.08335         0.396015      0.962377     -0.231721
O       3.84290      9.48727     11.39490        -0.710114      0.484388      0.022033
O      15.30387      9.71938     11.38493         0.127056     -0.317291     -0.242775
O       7.66116      1.93558      2.85659        -0.665958     -0.269009     -0.725776
O       7.68575      1.92006     15.88348        -0.931024      0.089552     -0.336660
O       7.61128     13.40734      2.80998         0.633875      0.087308     -0.522212
O       7.74982     13.37451     15.85499        -1.027735      0.473358     -0.350209
O       7.62764      2.00809      7.01265        -0.283469     -0.766158      0.473187
O       7.64234     13.39361      7.22504        -0.255422      0.544858     -0.573174
O       7.62974      1.87290     11.48304        -0.301757     -0.013759     -0.317844
O       7.56025     13.27070     11.56560         0.787839      1.097607     -0.319690
O       7.58977      5.73253      2.73785         0.922884      0.100081     -0.342705
O       7.72132      5.76785     15.75533        -1.621700     -0.049617     -0.034330
O       7.63453      5.74906      7.09253        -0.116451     -0.419258      0.135740
O       7.60449      5.76719     11.53996         0.253637     -0.367311     -0.606990
O       7.68042      9.54269      2.74832         0.183506      0.036704     -0.328705
O       7.68608      9.53694     15.81225         0.361068      0.206895      0.008010
O       7.67769      9.58310      7.18977        -0.481208     -0.161640     -0.251173
O       7.60293      9.61878     11.56849         1.324119      0.095515     -0.356020
O      11.53810      1.98041      2.68086        -0.274340      0.074008      0.160842
O      11.46030      1.96667     15.65959         0.333106      0.182950      0.207425
O      11.45659     13.41312      2.91158        -0.080385     -0.102753     -0.587919
O      11.50020     13.45270     15.86479         0.316692      0.201917     -0.092457
O      11.54380      1.87230      7.16960        -0.803992      0.331441     -0.488641
O      11.44481     13.44519      7.13773        -0.074746     -0.243169     -0.171534
O      11.47135      1.73270     11.44421         0.304984      0.512059     -0.233985
O      11.40829     13.43299     11.50126         0.896346      0.078133     -0.281601
O      11.47504      5.79112      2.82762        -0.822737     -0.293325      0.008901
O      11.44604      5.88500     15.70914         0.931518     -0.969621      0.138826
O      11.45709      5.61242      7.15856         1.386806      0.391958     -0.141682
O      11.54272      5.82438     11.46780        -1.046948     -0.247229     -0.562563
O      11.53716      9.57940      2.82549        -1.505929      0.258846      0.008222
O      11.44093      9.58438     15.81922         0.680371     -0.098719     -0.350050
O      11.41379      9.45951      7.12046         1.572545      0.972726      0.139888
O      11.56345      9.61747     11.48268        -1.331864     -0.471162     -0.676864
O       1.77933      3.77159      2.78297         0.441610      1.253498     -0.302125
O       1.92906      3.89271     15.92318        -1.037207     -1.139950     -1.054755
O       1.88852      0.02384      2.75659        -0.115826     -0.910666     -0.264756
O       1.84162      0.00875     15.92347         0.220069      0.586861     -0.493607
O      13.47997      3.94202      2.81044        -0.646562     -1.646184     -0.310410
O      13.39429      3.83668     15.88274        -0.240324      0.569344     -0.917060
O      13.29773      0.02413      2.73810         0.613356     -0.180796     -0.201712
O      13.44206      0.02988     15.74247        -0.384978     -0.280378     -0.065701
O       1.87206      3.91037      7.10331         0.278708     -1.595069     -0.750101
O       1.88676     15.31559      7.03558         0.261584     -0.105773     -0.271876
O      13.57765      3.71845      7.12043        -0.925439      1.392274     -0.340329
O      13.37186      0.02492      7.15985         0.435319     -2.067901     -0.260548
O       2.05907      3.82980     11.39686        -0.737601      0.170985      0.354884
O       1.83663     15.28167     11.57305        -0.137885      0.156118     -0.786312
O      13.33538      3.79876     11.40797         0.090265     -0.670578     -0.007977
O      13.46397     15.24715     11.53620         0.024018      1.078916     -0.368086
O       1.98484      7.56576      2.70865        -0.264792      0.249536     -0.387848
O       1.89109      7.73435     15.79330         0.415792     -0.981067      0.341130
O      13.38724      7.74920      2.73712        -0.219494     -0.981351      0.134234
O      13.39399      7.70398     15.94504        -0.036327     -0.506509     -0.543179
O       1.89445      7.62272      7.22119         0.076870      0.504770     -0.556333
O      13.44049      7.63243      7.27821        -0.829883     -0.264549     -0.919717
O       1.78782      7.62348     11.35724         0.474375      0.594021     -0.055249
O      13.49990      7.66837     11.29861        -0.489124      0.795151      0.119485
O       1.80587     11.44790      2.67376         0.152964      0.434153      0.279391
O       1.94176     11.48504     15.89997        -0.394519      0.271207     -0.394455
O      13.51098     11.44681      2.88125        -0.627465      1.422512     -0.336691
O      13.38996     11.49866     15.85610         0.172632      0.110671     -0.306799
O       2.00937     11.49561      6.98020        -1.096285     -0.761191      0.230844
O      13.42231     11.51961      7.14179        -0.543453     -0.406587     -0.323768
O       1.98055     11.44272     11.43192         0.001497      0.876037     -0.128832
O      13.23452     11.49807     11.48130         0.748993     -0.031639     -0.203340
O       5.76734      3.82728      2.62110        -0.121210     -0.548288      0.198590
O       5.65174      3.84234     15.81716         0.546266     -0.719322     -0.296478
O       5.69841     15.31966      2.63647         0.254450      0.364918      0.129016
O       5.76595     15.29206     15.96336         0.248710      0.151487     -0.510656
O       5.67861      3.82246      7.06069         0.186544     -0.169179     -0.444165
O       5.60036     15.30426      7.13317         0.442804      0.126605     -0.136763
O       5.64845      3.70701     11.59261         0.455309      1.273852     -0.389281
O       5.79387     15.32610     11.55333        -0.263301     -0.283245     -0.276277
O       5.76196      7.56950      2.64993        -0.277442      1.199135     -0.019193
O       5.74407      7.66645     15.98229        -0.175442     -0.453661     -0.696477
O       5.83024      7.66441      7.08507        -0.578433     -0.104110     -0.112473
O       5.79698      7.70922     11.39537        -0.323587     -1.011826      0.316438
O       5.73411     11.40722      2.91369         0.338636      0.824981     -1.103956
O       5.83563     11.42496     15.90573        -0.536743      1.444635     -0.538097
O       5.73196     11.45063      7.17707        -0.131238      0.407109     -0.160514
O       5.76354     11.53638     11.50882        -1.073240     -0.564964     -0.241797
O       9.56804      3.80483      2.80974         0.083771      1.472255     -0.268935
O       9.43653      3.88646     15.79109         1.060667     -0.390507     -0.320430
O       9.56778      0.04209      2.74736         0.086668     -0.798565     -0.162250
O       9.60248      0.08419     15.78977        -0.202658     -0.987314      0.014192
O       9.56364      3.77194      7.19556         0.205656      0.078595     -0.076525
O       9.52925      0.05826      7.14779         0.035009     -0.886966     -0.353613
O       9.48578      3.86660     11.46465         0.581291     -0.159625     -0.344449
O       9.51642     15.23413     11.63984        -0.320730      1.195214     -0.649963
O       9.54890      7.64957      2.87287         0.092386      0.158824     -0.434790
O       9.53365      7.64244     15.81775         0.149666      1.166051     -0.053076
O       9.61687      7.66143      7.23015        -0.433123     -0.928270     -0.647371
O       9.54848      7.66172     11.50612         0.194412      0.494521     -0.786053
O       9.58611     11.49624      2.81368         0.042741     -0.154144     -0.628326
O       9.61529     11.55007     15.85208        -0.022075     -0.329036     -0.517767
O       9.51754     11.53311      7.16352         0.706228      0.066556      0.207555
O       9.52865     11.52622     11.47526         0.340041     -1.452313     -0.271096
