  # total energy = -7867.94901920 
CRSYTAL
PRIMVEC
    15.010000000000000    0.0000000000000000    0.0000000000000000
     0.0000000000000000   15.010000000000000    0.0000000000000000
     0.0000000000000000    0.0000000000000000    16.400000000000000
PRESSURE
17.2413 17.2724 7.60999 0.037246 -0.036646 -0.107133
PRIMCOORD
320 1
Pb       3.75416      3.76363      4.21883         0.229067     -0.122036     -0.634373
Pb       3.77050      3.74675      0.10288        -0.462405     -0.256423     -0.737449
Pb       3.74310      0.01588      4.11066        -0.213778     -0.146993      0.022510
Pb       3.64471     14.99198      0.02535         0.515762      0.400496     -0.094783
Pb       0.02075      3.71350      4.06467        -0.331828      0.011048      0.238681
Pb       0.03899      3.84220     16.39255        -0.063852     -0.784397      0.068569
Pb       0.07702     14.95568      4.02273        -0.666505      0.646286      0.580666
Pb      14.96859      0.02145     16.38510        -0.228781      0.254439     -0.343851
Pb       3.85832      3.76603      8.20929        -0.275085     -0.295256     -0.068576
Pb       3.76542     14.84714      8.25681        -0.154268      0.671857     -0.133604
Pb       0.09372      3.74925      8.19517        -0.370248     -0.005574     -0.180582
Pb       0.09901     14.99590      8.27108        -0.389537      0.007941     -0.360778
Pb       3.70447      3.76291     12.29793         0.498267     -0.142941      0.510105
Pb       3.77490     14.96427     12.35876        -0.265669     -0.025096      0.215805
Pb       0.03996      3.76114     12.24402        -0.827454     -0.122925      1.286726
Pb      15.00154     15.00934     12.32117        -0.202173     -0.537857      0.268941
Pb       3.68626      7.43518      4.13384         0.190121      0.505890     -0.226613
Pb       3.69379      7.42822      0.05085        -0.139494      0.490370     -0.101504
Pb      14.85026      7.48275      4.08162         0.442827      0.116878      0.048831
Pb      14.93659      7.55212     16.36363         0.439571     -0.445019      0.548601
Pb       3.74893      7.44745      8.22911        -0.412693     -0.097043     -0.252026
Pb      14.92903      7.45633      8.18382         0.056654     -0.039207      0.084748
Pb       3.75643      7.50020     12.32638        -0.508247     -0.407506      0.246243
Pb       0.01563      7.50900     12.32100         0.075652     -0.498709     -0.165573
Pb       3.65612     11.37034      4.06755        -0.108767     -0.753120     -0.399550
Pb       3.69861     11.31564     16.35733         0.011136     -0.611738      0.587805
Pb      14.89530     11.33871      4.07528         0.024471     -0.359026      0.211534
Pb      14.89150     11.18859     16.36385         0.404961      0.637831      0.564308
Pb       3.71347     11.23724      8.27745        -0.071238     -0.156480     -0.688510
Pb      14.91747     11.21700      8.26212        -0.104243     -0.018952     -0.779902
Pb       3.69078     11.26203     12.35672        -0.075895      0.017869      0.259778
Pb      14.94978     11.24616     12.33524         0.339914      0.417404     -0.013234
Pb       7.50554      3.61200      4.21463         0.145944      0.531130      0.077490
Pb       7.49205      3.73346      0.04702         0.237145     -0.240791     -0.899667
Pb       7.47626      0.05168      4.15582         0.262353     -0.339318     -0.009259
Pb       7.53067      0.10177      0.07635         0.121185     -0.473858     -0.412707
Pb       7.55507      3.73465      8.20419        -0.433911     -0.053559      0.175336
Pb       7.54983     14.85119      8.26620        -0.108560      0.324732     -0.123570
Pb       7.61265      3.68555     12.28660        -0.814093      0.289952      0.177907
Pb       7.53181      0.00367     12.41404        -0.184306     -0.431894     -0.682813
Pb       7.42116      7.53184      4.18291        -0.080415     -0.154086     -0.383919
Pb       7.45914      7.50335      0.06703         0.074581      0.415016     -0.319542
Pb       7.42945      7.55513      8.19062         0.529835     -0.528714      0.357638
Pb       7.45498      7.41764     12.36924         0.453673      0.222523      0.016399
Pb       7.35857     11.28858      4.08629         0.157991     -0.231039     -0.189204
Pb       7.49412     11.21002      0.01666        -0.186034      0.282864     -0.106212
Pb       7.35993     11.17882      8.30857         0.173105      0.079873     -0.096961
Pb       7.47021     11.16585     12.44121         0.066660     -0.013122     -0.636363
Pb      11.29121      3.69110      4.08534        -0.203207      0.130802      0.511172
Pb      11.20424      3.71662      0.00063         0.441164     -0.049662      0.037762
Pb      11.18298      0.05993      4.12960         0.555938     -0.365918      0.131596
Pb      11.23248      0.05683      0.03668        -0.107317     -0.545604     -0.058909
Pb      11.27050      3.74818      8.17053        -0.072799     -0.241701      0.198750
Pb      11.24314     14.93245      8.23599        -0.378368      0.312659     -0.348953
Pb      11.32873      3.76133     12.32075        -0.378855     -0.302210     -0.172280
Pb      11.29765      0.00774     12.25872        -0.685085     -0.269982      0.264601
Pb      11.19372      7.46952      4.08674        -0.578875      0.064427      0.031599
Pb      11.24728      7.53502      0.02725        -0.307075     -0.312568      0.033490
Pb      11.25299      7.53045      8.17719         0.097892     -0.357587      0.378904
Pb      11.34818      7.53799     12.32553        -0.737932     -0.484414     -0.317159
Pb      11.19127     11.25473      4.11396         0.114369      0.513479      0.239258
Pb      11.25890     11.25075      0.01272        -0.512515      0.029940     -0.010566
Pb      11.14806     11.12388      8.18838         0.404863      0.425340     -0.254055
Pb      11.32100     11.20331     12.30504        -0.914319      0.170977     -0.165195
Ti       1.89389      1.84389      2.06381        -0.311676      0.196280     -0.033876
Ti       1.88345      1.84551     14.32748        -0.217475      1.026262      2.440619
Ti       1.73998     13.09131      1.95519         1.305840     -0.156574      1.396349
Ti       1.81961     13.12901     14.41737        -0.323071     -0.346794     -1.377308
Ti      13.11547      1.84250      2.11648         0.812014     -0.425246      0.092715
Ti      13.15210      1.81921     14.47838         0.322641      0.111091     -0.110011
Ti      13.11149     13.14820      2.02546        -0.252142     -0.457589      0.216276
Ti      13.02978     13.05436     14.32404         1.321514      1.943530      0.614489
Ti       1.83378      1.80187      6.17129         0.375996      0.265499      0.474975
Ti       1.84044     13.12429      6.21895         0.480520     -0.950113      0.137083
Ti      13.15652      1.87671      6.21596        -0.450874     -0.353996     -1.103780
Ti      13.10875     13.20635      6.15751        -0.483433     -0.992711      0.113164
Ti       1.81140      1.88079     10.36681         0.719759     -0.783842     -1.194417
Ti       1.77041     13.07960     10.33467        -0.101484      0.823278      0.417169
Ti      13.09842      1.80519     10.23051        -1.199682      0.392899     -0.391465
Ti      12.98207     13.08403     10.21475         1.769298     -0.528938      0.374343
Ti       1.86684      5.60535      2.13086        -0.196843      0.801580     -0.947934
Ti       1.86153      5.63418     14.45571         0.490437     -0.441872      0.035329
Ti      13.04969      5.53171      2.08439         1.135508      1.183698      0.029799
Ti      13.10683      5.56996     14.38757         0.412493     -0.043434      0.368206
Ti       1.88984      5.54817      6.15486        -0.233392      0.965146      0.376219
Ti      13.12649      5.55479      6.17542         0.372303      0.888128     -0.014465
Ti       1.84197      5.62051     10.38176         0.595072      1.094964     -0.539385
Ti      13.09592      5.51891     10.37958         0.356668      1.552409     -0.988482
Ti       1.72625      9.35676      2.08268         0.797520     -0.252850     -0.015690
Ti       1.82681      9.33515     14.31013         0.423723      0.633304      0.711608
Ti      12.97717      9.32621      2.11303         1.031173      0.428566      0.410422
Ti      13.13840      9.36618     14.42880        -0.599151     -0.363933      0.571577
Ti       1.80754      9.34399      6.17412         0.522236      0.561688     -0.518961
Ti      13.12057      9.37313      6.14491        -0.021601      0.686391     -0.040715
Ti       1.86026      9.41253     10.26676        -0.355043     -1.686019      0.396357
Ti      13.17446      9.33856     10.37796        -0.755923     -0.928522     -1.491334
Ti       5.63478      1.88138      2.11360        -0.390471     -0.862520     -0.459060
Ti       5.62049      1.85335     14.40029        -0.171242      0.404775     -0.384672
Ti       5.56878     13.16120      2.08745        -0.456377     -0.703750      0.005221
Ti       5.64181     13.17710     14.45249        -0.595119     -0.866420      0.008844
Ti       5.57651      1.77538      6.22829         0.071296      0.484418     -0.339446
Ti       5.58714     13.11499      6.19499         0.424445     -0.344358      0.551866
Ti       5.58193      1.75787     10.29575         0.111243      1.002900     -0.128791
Ti       5.52250     13.03732     10.33420         1.427180     -0.104578      0.294393
Ti       5.70541      5.55082      2.00536        -0.619954      1.206287      0.901706
Ti       5.68330      5.59327     14.39602        -0.813610     -0.045477      0.745841
Ti       5.64420      5.59306      6.17018        -0.107878     -0.983424     -0.480301
Ti       5.65727      5.55243     10.36279        -0.380826     -0.593826     -0.352110
Ti       5.49055      9.33292      2.16391        -0.096542      0.285924     -0.497023
Ti       5.54507      9.37104     14.51507         0.548865     -0.304488     -0.453041
Ti       5.54745      9.34749      6.27373        -0.231758      0.407316     -1.198483
Ti       5.58761      9.25380     10.40081         1.375610      1.254031     -0.688225
Ti       9.40681      1.88379      2.09152        -0.596533     -0.740103      0.599197
Ti       9.42367      1.86347     14.30016        -0.074983      0.044179      1.684193
Ti       9.36691     13.14258      2.12530         0.082397      0.415578     -0.956771
Ti       9.38431     13.12870     14.41916        -0.338446     -0.019701     -0.452404
Ti       9.32765      1.85872      6.26419         0.496764     -0.157905     -0.229097
Ti       9.38108     13.12478      6.17952        -0.021574      0.585474     -0.114390
Ti       9.30805      1.82181     10.27079         0.637259     -0.549215     -0.370647
Ti       9.31367     13.01932     10.31383        -0.001841      1.305684      0.252253
Ti       9.35260      5.57884      2.06898         0.448509      0.917708     -0.019520
Ti       9.40863      5.62579     14.49520         0.016431     -0.177686     -1.355831
Ti       9.37681      5.63306      6.22984        -0.117636     -0.026810     -0.684778
Ti       9.39995      5.58960     10.30000        -0.661856      0.277677     -0.461090
Ti       9.23537      9.42998      2.08442         1.301036     -1.141322     -0.348947
Ti       9.37739      9.35722     14.42954        -0.314233      0.012112     -0.200548
Ti       9.29976      9.41429      6.21923         0.324956     -0.518700     -0.405691
Ti       9.37776      9.30621     10.40654        -0.233613     -0.025179     -0.097288
O       2.04501      1.88186      0.26539        -0.243143     -0.011137      0.451852
O       1.76020      1.89783     12.58949         0.108774     -0.276135     -1.370956
O       1.76956     13.14096      0.17451        -0.065470     -0.237194     -0.369345
O       1.82975     13.06487     12.46666         0.320743      0.018321      1.618674
O      13.10598      1.70145      0.31469        -0.123637      0.480008     -0.055698
O      13.08701      1.84303     12.67244         0.019832      0.048742     -0.420637
O      13.35502     13.14038      0.20873        -0.819759      0.182271      0.666008
O      12.95847     13.04556     12.51972         0.555317      0.060239      0.251387
O       1.85768      1.82497      4.34089         0.051701      0.139305      0.336511
O       1.88055     13.16233      4.38251         0.421549     -0.246882      0.597908
O      13.23909      1.88367      4.30932        -0.220229     -0.018233      1.315868
O      13.06290     13.14713      4.33728         0.106234     -0.172895      0.730595
O       1.74586      1.89924      8.49997         0.265325     -0.106299      1.425609
O       1.86500     13.05813      8.49828        -0.440629      0.210683      0.714647
O      13.21205      1.82693      8.41004        -0.182193      0.210447      1.192669
O      13.16423     13.14230      8.41510        -0.236168     -0.299728      0.390284
O       1.85678      5.66204      0.20047         0.282264     -0.039368      1.717664
O       1.94226      5.68670     12.64086        -0.569675     -0.238316     -0.407323
O      13.02438      5.61329      0.30966         0.343256      0.072416     -0.280710
O      13.13243      5.52440     12.55000        -0.334003      0.445636      1.005586
O       2.07223      5.55693      4.32641        -0.478358     -0.269816      0.263330
O      13.05960      5.54689      4.37532         0.042005      0.260101      0.151192
O       1.86504      5.68396      8.55868         0.106164     -0.559206     -0.025063
O      13.10967      5.58267      8.55555         0.203482     -0.031922     -0.151118
O       1.90220      9.25704      0.27116        -0.425240      0.211800      0.428636
O       1.86156      9.35019     12.49859         0.102239      0.148524      0.386933
O      13.09161      9.26062      0.29067        -0.171667      0.669549      0.140108
O      13.14431      9.24720     12.63157         0.004244      0.738767     -0.068512
O       1.84108      9.42560      4.32578        -0.013387     -0.140097      1.050726
O      13.18618      9.43815      4.30002        -0.339210     -0.400704      0.689048
O       1.76979      9.25387      8.48302        -0.018619      0.387862     -0.086408
O      13.18610      9.26398      8.52173        -0.055287      0.423689      0.183829
O       5.53103      1.76767      0.22367         0.471926      0.115888      1.264729
O       5.61879      1.90743     12.56939         0.123099     -0.221573      0.064300
O       5.54457     13.13605      0.30221         0.385450      0.393105     -0.556173
O       5.55416     13.00463     12.61639         0.200891     -0.014732     -0.109746
O       5.69184      1.71134      4.24943        -0.499062      0.826554      1.542638
O       5.47769     13.16749      4.38170        -0.063723     -0.306458      0.106866
O       5.62369      1.84835      8.45771        -0.197762     -0.070325      0.816406
O       5.59624     13.04765      8.51483         0.288120      0.366955      0.707744
O       5.78164      5.74283      0.16727        -0.500568     -0.815877      1.328172
O       5.66633      5.56013     12.60715         0.047642     -0.054423     -0.430117
O       5.69832      5.42903      4.32754        -0.537140      0.448444      0.617267
O       5.50176      5.60325      8.52488         0.434241      0.072553      0.205243
O       5.63445      9.26200      0.27992        -0.380166      0.233664      0.802110
O       5.65787      9.36313     12.58238        -0.266822      0.348098      0.836330
O       5.62375      9.32832      4.36805        -0.137300      0.461415      1.191007
O       5.67414      9.22048      8.48665         0.022766      0.127145      0.816025
O       9.43500      1.86422      0.30800        -0.361991     -0.275708     -0.246974
O       9.49318      1.85517     12.52987        -0.481490     -0.025985     -0.542600
O       9.34273     13.28096      0.20774        -0.114988     -0.898881      1.971308
O       9.47664     13.10417     12.53788        -0.567076      0.142110      1.383514
O       9.24654      1.81018      4.39563         0.501758      0.090889      0.303250
O       9.50086     13.19264      4.34906        -0.564587     -0.223984      0.307058
O       9.28986      1.88476      8.45290        -0.286124      0.123921     -0.431943
O       9.39972     13.11396      8.47399        -0.239835     -0.314522      0.270286
O       9.48718      5.54708      0.19320        -0.629481      0.035572      1.743957
O       9.49997      5.62261     12.59742        -0.559936     -0.025836      0.595731
O       9.42793      5.64996      4.35313        -0.249397     -0.093018      0.836171
O       9.39890      5.59267      8.44292        -0.061741     -0.423767      0.472954
O       9.46896      9.48877      0.24369        -0.487824     -0.112676      1.443317
O       9.33496      9.30384     12.54881         0.258594      0.017733      1.391332
O       9.21681      9.39038      4.41021         0.304703     -0.176478      0.304194
O       9.27647      9.39055      8.58412         0.465307      0.164181     -1.051403
O       3.76912      2.11613      2.31876         0.188214      0.269466      0.405025
O       3.72507      1.67613     14.59065         0.609375      0.264906     -0.079102
O       3.62599     12.87327      2.19035        -0.197053     -0.133233      0.500556
O       3.72518     13.33869     14.62632         0.042092     -0.583115      0.138946
O      14.99834      1.62451      2.23075         0.674223      0.192246      0.323813
O       0.05457      1.96361     14.89290        -0.853686      0.053801     -0.602198
O      14.96368     13.26281      2.54619         0.383821      0.324797     -0.984499
O      14.98640     13.05163     14.51325         0.296139     -0.591846     -0.070196
O       3.69826      1.74810      6.49905         0.316283      0.475271     -0.195203
O       3.78657     13.10597      6.68524        -0.889638      0.086410     -0.855601
O      15.00550      1.81565      6.54229         0.448056     -0.291280     -0.332157
O      15.00862     13.12365      6.39411        -0.031157      0.130503      0.289526
O       3.70837      2.08166     10.60636         0.234696     -0.272326     -0.215049
O       3.67962     12.84701     10.57698         0.296352      0.228928     -0.207992
O      14.90128      1.73860     10.67452         0.968886     -0.288233     -0.374425
O      14.91320     13.26747     10.61124         0.313239      0.104416     -0.297845
O       3.79536      5.41372      2.24609         0.387325     -0.220960      0.066865
O       3.77264      5.75849     14.62955         0.122446     -0.073763      0.307112
O      15.00369      5.80945      2.44966        -0.262159     -0.398590     -0.454975
O      14.96206      5.52340     14.82995        -0.111398      0.395039     -0.900713
O       3.77738      5.59309      6.50974        -0.794948     -0.463046     -0.043598
O       0.02613      5.48420      6.43379         0.263588      0.946136      0.037055
O       3.74773      5.42792     10.69299        -0.063796      0.170224     -0.420491
O      14.97644      5.71010     10.67635         0.775029      0.081786     -0.134987
O       3.64548      9.50502      2.31747         0.681346      0.218415      0.255319
O       3.69277      9.24128     14.67250         0.909120     -0.259054     -0.152065
O      14.90934      9.04517      2.33107        -0.168218     -0.046532     -0.191508
O      15.00767      9.53341     14.78147        -0.447602     -0.588899     -0.875646
O       3.76412      9.36417      6.61947        -0.911835     -0.337603     -0.321194
O      14.97715      9.37261      6.49406         0.621226      0.111738      0.011379
O       3.76157      9.53134     10.44812        -0.294846      0.153298      0.542547
O      14.98240      9.12934     10.68007         1.137111      0.410491     -0.352119
O       7.52692      1.54421      2.32963        -0.606631      0.276618     -0.492248
O       7.54949      1.98838     14.64607         0.191372     -0.244052      0.043240
O       7.42503     13.33677      2.42062         0.953189     -0.527512     -0.278760
O       7.46881     13.04786     14.68094         1.074489     -0.239071     -0.153152
O       7.41683      1.77750      6.39999         0.522337      0.137472      0.224630
O       7.49632     13.10756      6.43767        -0.037564     -0.150218      0.082145
O       7.44998      1.63437     10.56382        -0.041807     -0.221544      0.399726
O       7.50943     13.42124     10.55002        -0.523731     -0.656781      0.120224
O       7.51909      5.86527      2.36264         0.625207     -0.435956     -0.326551
O       7.55870      5.54213     14.66278        -0.334289     -0.327333     -0.011952
O       7.46132      5.58621      6.50661         0.843511      0.217859      0.003930
O       7.50466      5.80813     10.57615         0.357538     -0.067112      0.088018
O       7.42956      9.43181      2.42295         0.423756     -0.664868     -0.322408
O       7.50888      9.45410     14.83730        -0.100232      0.145260     -0.820366
O       7.45767      9.35052      6.56097         0.340375      0.181898     -0.217376
O       7.53261      9.19893     10.67546        -0.905763     -0.254149     -0.203401
O      11.24962      1.94736      2.45123        -0.060452      0.446553     -0.118497
O      11.27836      1.75143     14.78363        -0.197847     -0.009871     -0.414678
O      11.28359     12.99855      2.39922        -0.563186     -0.492255     -0.685919
O      11.24665     13.20948     14.78268        -0.014265     -0.218144     -0.160098
O      11.26635      1.92634      6.49446        -0.445005      0.410504     -0.224304
O      11.21699     13.16505      6.54905         0.743366     -0.174061     -0.135520
O      11.17241      2.04130     10.37351         1.954039      0.343341      0.579585
O      11.23344     12.93055     10.63176        -0.313360     -0.503470     -0.627048
O      11.24709      5.37494      2.39568        -1.338065      0.008397      0.048248
O      11.27647      5.70718     14.69240         0.465429      0.079818     -0.180680
O      11.28359      5.52010      6.52887        -0.862419      0.211498     -0.278083
O      11.22959      5.48193     10.58268         0.460512     -0.490492      0.100136
O      11.17467      9.56450      2.55528         0.288114     -0.536817     -0.844846
O      11.25639      9.45548     14.79450         0.499817     -0.587852     -0.804216
O      11.27181      9.28165      6.55525        -0.742528      0.300564     -0.327178
O      11.28712      9.49174     10.64608        -0.269070     -0.068487     -0.053438
O       1.66496      3.73709      2.35899         0.229948     -0.151008     -0.173450
O       1.91468      3.76960     14.71068         0.420540     -0.400169     -0.099871
O       2.11882     14.97066      2.39482        -0.610277      0.027411     -0.565685
O       1.74946      0.00616     14.64163        -0.228595     -0.671762     -0.164378
O      13.25306      3.73933      2.49052         0.205759     -0.992139     -0.610443
O      13.00628      3.71378     14.82620         0.290129      0.476058     -0.579152
O      12.93656     14.96202      2.40314         0.277960      0.741365     -0.166231
O      13.33297     14.96020     14.60492        -0.455605     -0.153030      0.111276
O       1.83202      3.70435      6.47164         0.681500     -0.564366     -0.069067
O       1.94678     14.96081      6.66915        -0.600213      0.065808     -0.586053
O      13.25325      3.74318      6.48530        -0.495386     -0.657975      0.223277
O      13.03263      0.02060      6.47102         0.508192     -0.212677     -0.051610
O       1.71287      3.72845     10.72849         0.174891      0.386886     -0.781068
O       2.01897      0.01317     10.67226        -0.386658     -0.423667     -0.568591
O      13.26506      3.70448     10.70291        -0.384528     -0.945278     -0.663178
O      12.82318     14.92160     10.54733         0.895896      1.381590     -0.361669
O       2.06510      7.46814      2.46442        -0.248354     -0.322555     -0.387783
O       1.70385      7.53684     14.64055        -0.051196     -0.868409      0.041204
O      12.80124      7.43048      2.42643         0.505388      0.451337     -0.181032
O      13.20232      7.52726     14.73008        -0.188421     -0.712112     -0.596542
O       1.97496      7.46934      6.35013        -0.472084     -0.198090      0.182121
O      13.22896      7.48406      6.43173        -0.409564     -0.567717     -0.071993
O       2.00776      7.51889     10.61112         0.222557     -0.656206      0.079410
O      13.01854      7.48016     10.61904        -0.335068     -1.104158      0.258728
O       1.47104     11.21982      2.31374         0.674363      0.541767     -0.348549
O       2.06706     11.18069     14.64556        -0.426725      1.522530     -0.271871
O      13.39122     11.24644      2.23683        -0.597627     -0.599471      0.028663
O      13.10257     11.28121     14.74832        -0.295593     -1.234311     -0.186790
O       1.97469     11.22985      6.57016        -0.474307      0.138685     -0.399732
O      13.09513     11.25364      6.43910         0.001660     -0.138236      0.293698
O       1.61036     11.21163     10.61962         0.015844      0.349394     -0.443433
O      13.34998     11.16509     10.59624        -0.353756      1.511976     -0.218431
O       5.99002      3.74264      2.35081        -0.470421     -0.756089     -0.766615
O       5.57492      3.66178     14.85297        -0.125817      1.732829     -0.390236
O       5.30516     14.98064      2.40239         0.225228      0.384018     -0.637270
O       5.80855     15.00975     14.55851        -0.025822     -0.150565      0.279265
O       5.57928      3.67270      6.48226        -0.102588     -0.247019     -0.085197
O       5.63552     14.95095      6.62860        -0.277719     -0.163247     -0.389838
O       5.90562      3.73103     10.59145        -0.584492     -0.811811     -0.203121
O       5.44374     14.91452     10.68217        -0.365272      0.668861     -0.357001
O       5.56533      7.46451      2.45547        -0.380745     -0.159891     -0.236847
O       5.79788      7.49854     14.67643        -0.173242     -0.077572     -0.436577
O       5.60381      7.41160      6.33089         0.157245      1.302895      0.461392
O       5.48474      7.43808     10.68476        -0.071391      0.264608     -0.184552
O       5.64856     11.23594      2.46206         0.122043      0.551480     -0.178506
O       5.54157     11.25912     14.89135        -0.081044     -0.332499     -0.958201
O       5.55962     11.22986      6.65034         0.524638     -0.039051     -0.771921
O       5.91127     11.19715     10.51344        -0.260278      0.124033      0.203096
O       9.18126      3.70476      2.39094        -0.175771      0.546859     -0.053643
O       9.52598      3.71334     14.79717        -0.160390      0.100613     -0.901184
O       9.58119     14.98970      2.38860        -0.186487     -0.086907     -0.249207
O       9.35356     15.00577     14.69469        -0.454722      0.312403     -0.489796
O       9.17655      3.71570      6.46014         0.820615      0.801811     -0.061754
O       9.41674      0.03010      6.55453        -0.289970     -0.953441     -0.134688
O       9.17658      3.68060     10.60241         0.023912      1.161110     -0.297741
O       9.62830     15.00406     10.50688        -0.223492     -0.714299      0.234894
O       9.53500      7.51363      2.20112         0.152957     -0.045102      0.529399
O       9.35528      7.51509     14.82074        -0.013352     -0.062846     -0.495463
O       9.36717      7.49831      6.50288        -0.049674     -0.100301     -0.035555
O       9.54544      7.45659     10.44849         0.325371     -0.171693      0.537560
O       9.33199     11.25489      2.43510        -0.654576      1.152761     -0.098995
O       9.41717     11.22181     14.74068         0.036990      1.213854     -0.374326
O       9.48807     11.27683      6.44113        -0.381917     -1.053450      0.181066
O       9.29401     11.22437     10.64348        -0.515027     -0.193454     -0.036469
