  # total energy = -7872.93480432 
CRSYTAL
PRIMVEC
    15.2000000000000000    0.0000000000000000    0.0000000000000000
     0.0000000000000000   15.2000000000000000    0.0000000000000000
     0.0000000000000000    0.0000000000000000    17.000000000000000
PRESSURE
7.53013 8.01419 5.4819 0.090704 -0.136602 -0.08359
PRIMCOORD
320 1
Pb       3.60925      3.86951      4.34837         0.055037     -0.349516     -0.513085
Pb       4.04040      3.93765     16.99081        -1.017648     -0.674661      0.207110
Pb       3.60651      0.26000      4.37928         0.234874     -0.759623     -0.905761
Pb       3.89728     15.14411     16.93604        -0.083026      0.629236     -0.284512
Pb       0.09217      3.91363      4.21124        -0.676799     -0.693102     -0.340799
Pb       0.24467      3.93786     16.92316        -1.019275     -0.903908      0.202028
Pb      15.13730      0.29888      4.58145        -0.368504     -0.403827     -1.081354
Pb       0.08424     15.04317     16.95618        -0.215623      0.684280     -0.267868
Pb       3.99629      3.89882      8.36024        -0.760575     -0.373322     -0.007110
Pb       3.86922     14.95669      8.77822        -0.663763      0.646013     -0.473066
Pb       0.19010      3.59375      8.73092        -0.556712      0.710412     -1.348731
Pb      14.82740     15.12512      8.50135         1.443327     -0.252015     -0.360984
Pb       3.84972      3.61800     12.52616         0.500249      0.719555      0.227073
Pb       3.81716      0.05363     12.89100         0.297830     -0.074496     -1.060061
Pb      15.13313      3.90883     12.69046         0.039967     -1.311050     -0.057243
Pb       0.09776     15.19092     12.93686        -0.297949     -0.052827     -1.225000
Pb       3.69068      7.66733      4.37720        -0.134486      0.147955     -0.454392
Pb       3.73554      7.64451     16.96237         0.496600      0.056180      0.015562
Pb      15.03572      7.86316      4.39730         0.198964     -0.250753     -0.850325
Pb      15.08118      7.44001     16.83171         0.499059      1.219382      0.717806
Pb       3.87841      7.58285      8.29957        -1.139558     -0.101402      0.830558
Pb      15.01805      7.49687      8.49829         0.599778      0.178679      0.414033
Pb       3.65363      7.41604     12.64717         0.543751      0.370635     -0.778404
Pb       0.01171      7.38582     12.80547         0.165159      0.530333     -0.822415
Pb       3.47500     11.49534      4.40304         0.677213     -0.251366     -0.984452
Pb       4.10926     11.46043      0.31200        -0.738989     -0.418151     -0.448435
Pb      15.11707     11.50836      4.22654         0.200041      0.029201     -0.285830
Pb       0.15445     11.35369     16.85579        -0.240712     -0.097409      0.219716
Pb       3.63128     11.39599      8.57254         0.364409     -0.170518      0.116271
Pb      15.08503     11.37860      8.63385         0.255536     -0.244015     -0.269406
Pb       3.69061     11.26841     12.69744         0.265565     -0.023939     -0.910920
Pb      15.11642     10.95821     13.05059         0.406779      1.085914     -1.477270
Pb       7.55298      3.84143      4.29656        -0.089997     -0.818734     -0.834268
Pb       7.59459      3.79658      0.15735         0.042994     -0.123037     -1.055476
Pb       7.55214     15.08170      4.24630         0.319961      0.408302      0.061713
Pb       7.69590     15.06429     16.96936        -0.601590      0.601623     -0.378921
Pb       7.71957      3.57991      8.39489        -0.566767      0.836216      0.087718
Pb       7.66808      0.01765      8.54405        -0.636010     -0.279043     -1.285010
Pb       7.72107      3.77182     12.80069        -0.985294      0.214668     -0.442223
Pb       7.58323     15.07384     12.89233        -0.369638      0.516380     -0.651046
Pb       7.77556      7.47534      4.03118        -0.697958      0.846597      1.065542
Pb       7.68783      7.73293      0.18196        -0.994932     -0.548385     -0.939445
Pb       7.51823      7.64582      8.23562         0.275159     -0.183005      0.948684
Pb       7.41869      7.61925     12.63515         0.430640     -0.713619     -0.197192
Pb       7.44707     11.36431      4.31272         0.299332      0.178654     -0.575090
Pb       7.51640     11.50203      0.02205         0.753590     -0.333871     -0.242444
Pb       7.60014     11.54860      8.66875        -0.269522     -0.297256     -0.877075
Pb       7.59662     11.33338     12.74018        -0.303730      0.332878     -0.953414
Pb      11.37694      4.03824      4.05728         0.043042     -1.636634      0.101281
Pb      11.30547      3.58927     16.96612         0.055896      0.446403     -0.201407
Pb      11.52496     15.13486      4.09569         0.021862      0.878098      0.781900
Pb      11.45051     15.18000     16.97534         0.017676      0.053447     -0.254218
Pb      11.48319      3.79923      8.46575        -0.460354      0.142732     -0.167340
Pb      11.32307      0.04338      8.45005        -0.350870      0.023516     -0.710339
Pb      11.26471      3.61097     12.81584         0.468551      0.376284     -0.687183
Pb      11.39260     15.19291     12.64903         0.448644     -0.136211     -0.108757
Pb      11.52564      7.52364      4.06075        -0.799714      1.173540      0.497030
Pb      11.42559      7.56706     16.92089        -0.315679     -0.003019     -0.191724
Pb      11.27219      7.49624      8.73961         0.159531      0.443105     -1.075742
Pb      11.37365      7.61838     12.99334        -0.319252     -0.432342     -1.139726
Pb      11.37176     11.27902      4.15986         0.113192     -0.012785     -0.049678
Pb      11.50639     11.46522     16.67025        -0.590875     -0.201930      1.229829
Pb      11.29261     11.43453      8.53540         0.150053     -0.897090     -0.068337
Pb      11.22954     11.16517     12.44920         0.951525      0.671839      0.908129
Ti       1.83241      1.85507      2.00286        -0.022830      0.951908      1.149402
Ti       1.85942      1.93422     14.83713         0.802024     -0.105482      2.615545
Ti       1.90031     13.28675      2.06634         0.533953      1.066236      3.187129
Ti       1.94842     13.26033     14.84014        -0.137680     -0.118690      1.300489
Ti      13.30548      1.96423      2.02565         0.076553     -0.794568      2.635551
Ti      13.32340      1.83541     14.87379         0.326737      1.174534      0.598412
Ti      13.41527     13.33397      2.18633         0.241536      0.562711      0.077969
Ti      13.41155     13.33309     14.85425        -0.024274     -0.863752      0.127759
Ti       1.88941      1.88651      6.59303        -0.642899      0.465943      1.938201
Ti       1.90000     13.33262      6.65136        -1.414695      0.349790      0.030489
Ti      13.14048      1.97314      6.44439         1.553096     -0.243191     -0.593962
Ti      13.15223     13.19749      6.53648         1.953860      0.630065     -0.506893
Ti       1.89462      1.82278     10.61411         0.186885     -1.456336     -0.175500
Ti       1.77126     13.18420     10.88174         0.953509      0.822698     -0.098073
Ti      13.28532      1.78775     10.57401        -0.116416      0.407104      2.915803
Ti      13.31987     13.14009     10.81758         0.065402     -0.001610      2.197574
Ti       1.80810      5.78674      2.27520         0.173118     -0.530013      1.369549
Ti       1.97635      5.67714     14.96941         0.044491      0.133831     -0.382588
Ti      13.30523      5.75123      2.08457         0.341283     -0.195941     -0.172366
Ti      13.19133      5.60787     14.88474         0.180789     -0.515209      1.513596
Ti       1.70195      5.72208      6.53257         0.160065     -0.748575      0.507748
Ti      13.19466      5.69191      6.41210         0.884323      0.664485      1.103645
Ti       1.88135      5.58509     10.60637         0.621393      1.422417      0.548980
Ti      13.16833      5.59920     10.81833        -0.284645      0.131741      0.634705
Ti       1.74532      9.45242      2.03741         0.566253      0.967623     -0.099928
Ti       1.96507      9.41240     14.93586         0.351861     -0.121329      0.877200
Ti      13.18984      9.55936      1.95266         0.554086     -0.195380      2.420991
Ti      13.29886      9.46477     14.94387        -0.667697      0.450728      0.859074
Ti       1.75809      9.56607      6.55097         0.805479     -0.395878      1.768049
Ti      13.22917      9.48523      6.48174        -0.492207     -0.630782     -0.148263
Ti       1.81554      9.35730     10.61818         0.691567      0.154279      0.708553
Ti      13.26647      9.30295     10.69710         0.386801      1.253571      0.055538
Ti       5.59915      1.86119      2.18247         0.767410     -0.080364      1.455206
Ti       5.68258      1.88851     15.08371         0.566580     -0.086620      1.225616
Ti       5.69979     13.34343      2.29977        -0.146782     -0.448221      1.561742
Ti       5.70137     13.21195     14.89383        -0.134478      1.736301      0.260582
Ti       5.60325      1.88650      6.36596         1.031306     -0.299653      0.684274
Ti       5.59596     13.33975      6.44532         1.024277      0.176904      1.679767
Ti       5.73907      1.87788     10.53745        -0.437945      0.485486      1.637170
Ti       5.63819     13.28230     10.76773        -0.673635     -0.331549      0.670973
Ti       5.59791      5.65223      2.33016        -0.027962      0.399772     -0.404247
Ti       5.72296      5.77194     14.89862         0.480309     -0.778747     -0.700338
Ti       5.71873      5.74038      6.36945        -0.383711     -1.118951      1.233404
Ti       5.80663      5.68176     10.54645        -0.749934     -0.546809      0.964941
Ti       5.51110      9.46896      2.37747         0.543808      0.739878      1.050069
Ti       5.69373      9.48634     14.76638        -0.615781     -0.800255      1.238384
Ti       5.71689      9.63501      6.44026        -0.461735     -0.463447      0.507530
Ti       5.67971      9.43765     10.51167        -1.267787      0.662041      1.392472
Ti       9.45949      1.84544      2.24708         0.296015      0.587723      1.323099
Ti       9.46015      1.82831     14.93766        -0.502235      1.319979      1.775632
Ti       9.64005     13.29023      2.18703        -1.018452     -0.328279      0.831947
Ti       9.57178     13.24834     14.82977        -1.059516      0.431544      1.092725
Ti       9.46526      1.85937      6.30021        -0.285021     -1.014102      0.464620
Ti       9.46404     13.19747      6.47448        -0.783983      0.804076     -0.034996
Ti       9.44115      1.86705     10.70712        -0.030959     -0.036073      0.406444
Ti       9.49920     13.38348     10.65718        -0.152138     -1.164694      1.919228
Ti       9.47082      5.70686      2.01855         0.634290     -0.308752      0.117845
Ti       9.46178      5.66381     14.95757        -1.037434     -0.616699      0.593797
Ti       9.45311      5.58960      6.45522         0.440810      1.115953      1.238092
Ti       9.45273      5.71601     10.61988        -0.181898     -0.625666      0.657392
Ti       9.38921      9.57766      2.11478         0.755547      0.288911      1.519811
Ti       9.36929      9.49396     14.88995         1.190331      0.191880      0.769692
Ti       9.51921      9.37311      6.38355         0.452854      0.763186      2.479642
Ti       9.36108      9.48771     10.55933         1.162722     -0.665644     -0.214598
O       1.80348      2.10974      0.25279         0.069768     -0.865736      0.289977
O       1.92087      1.94897     13.10536        -0.057709      0.023691     -1.381784
O       1.76197     13.20114      0.36578         0.477939      0.157364     -2.081929
O       1.86402     13.41665     13.11689         0.282944     -0.678190     -0.608055
O      13.28686      1.73924      0.30987        -0.128267      0.108788     -1.257823
O      13.31552      1.72920     13.12836        -0.144540      0.563113     -0.588677
O      13.42820     13.41499      0.38147        -0.257655     -0.071086      0.501790
O      13.46072     13.20757     13.11155        -0.549247      0.183854      0.495985
O       1.95816      1.91463      4.81641        -0.292112      0.132559     -1.558754
O       1.91183     13.17807      4.89054        -0.109941      0.444033     -0.734975
O      13.26338      1.83559      4.67149        -0.102191      0.201505      0.050474
O      13.27805     13.41407      4.77905         0.025573     -0.827505     -0.066487
O       1.83370      1.85851      8.79420         0.250663     -0.117935      0.867972
O       1.89588     13.25331      9.09609        -0.037447      0.124253     -0.962389
O      13.21528      1.97430      8.82870         0.007408     -0.283484     -0.496751
O      13.36762     13.14118      9.08299        -0.385023      0.594801     -1.774170
O       1.85909      5.74766      0.54422         0.099295     -0.134748     -1.620303
O       1.86359      5.74411     13.19438         0.055582     -0.405025     -0.424495
O      13.26133      5.87726      0.29344        -0.310734     -0.399104      0.455895
O      13.14113      5.71633     13.11732         0.472340     -0.140844     -0.442367
O       1.70520      5.58520      4.69795         0.166152      0.443084      0.446197
O      13.25972      5.84540      4.65966         0.213332     -0.246940     -1.052627
O       1.73672      5.76817      8.89134         0.342897     -0.570818     -0.517228
O      13.13637      5.71378      9.08314        -0.475278     -0.310477     -1.250010
O       1.89410      9.51230      0.20744         0.028716     -0.114891      1.217287
O       1.94943      9.40024     13.14789        -0.029527     -0.274533      0.065037
O      13.27553      9.41684      0.23101        -0.150219      0.290987     -1.219198
O      13.13072      9.39258     13.16512         0.615391      0.162094     -0.376419
O       1.78320      9.66761      4.80522         0.021908     -0.296229     -1.291946
O      13.26816      9.58144      4.62703         0.086245     -0.470479      0.794598
O       1.72881      9.29891      8.87394         0.314934      0.547415     -0.397610
O      13.36463      9.42465      8.93822        -0.464367     -0.281671     -0.096088
O       5.59239      1.76495      0.41348         0.272056      0.355446     -0.288550
O       5.62498      1.76098     13.36648         0.251300      0.276886     -1.946184
O       5.79134     13.29820      0.53098        -0.362018     -0.298843     -1.856722
O       5.66820     13.43073     13.15214         0.270687     -0.342363     -0.902323
O       5.63772      1.87015      4.57990        -0.084986      0.130631      0.151595
O       5.69341     13.26062      4.72412        -0.100453      0.209874     -1.393036
O       5.71515      1.90883      8.80144         0.053949     -0.001649     -0.519273
O       5.51925     13.23428      8.97757         0.603385      0.013752     -0.044286
O       5.66984      5.72180      0.52827        -0.157791      0.086234      0.545867
O       5.64953      5.73496     13.08787         0.092798      0.057421      0.882674
O       5.84388      5.69033      4.62284        -0.315374      0.026876     -0.917357
O       5.85183      5.62650      8.78227        -0.503479      0.103951      0.161089
O       5.59931      9.57439      0.61064         0.110173     -0.240528     -1.042602
O       5.59949      9.44589     13.01352         0.408679     -0.052691      0.155799
O       5.59742      9.56643      4.64498        -0.063639     -0.227592      0.259695
O       5.82316      9.56458      8.75660        -0.508008     -0.168681      0.084325
O       9.54564      1.87292      0.48735         0.154713     -0.401868     -0.992496
O       9.43367      1.91011     13.19204         0.108983      0.136956     -1.282406
O       9.58575     13.23105      0.41706        -0.265604      0.677001     -0.018002
O       9.38386     13.28280     13.07736         0.134143     -0.441996      0.294082
O       9.43842      1.97809      4.55837         0.077025      0.087084     -0.563798
O       9.36000     13.35030      4.72932         0.524012     -0.671107     -0.462417
O       9.32820      1.65251      8.93841         0.784510      0.546701     -0.152762
O       9.45860     13.35367      8.89919         0.219100      0.135123     -0.573908
O       9.44921      5.73861      0.22380        -0.017875      0.469680      0.738848
O       9.54126      5.41728     13.19284        -0.333109      0.308814      0.008686
O       9.43833      5.67570      4.70117         0.130751     -0.275186     -0.879159
O       9.60695      5.58016      8.83116        -0.295778      0.264287      0.237744
O       9.36248      9.51647      0.37338        -0.086698     -0.091846     -1.305331
O       9.38561      9.65197     13.11946        -0.180425     -0.455715     -0.381902
O       9.54460      9.47310      4.68093         0.071456      0.234966     -1.873764
O       9.44838      9.59652      8.78711        -0.170525     -0.595790      0.757110
O       3.78351      1.96791      2.48250        -0.872428     -0.001779      0.333783
O       3.82375      1.86776     15.31561        -1.774534     -0.063654      0.142280
O       3.84271     13.25546      2.47875        -1.356788     -0.064484     -0.054881
O       3.78844     13.36744     15.20334        -0.259763     -0.403731      0.472926
O      15.16126      1.79989      2.61016         0.737820      0.441430     -0.427915
O       0.01413      2.05116     15.14487        -0.356154     -0.053890      0.101433
O       0.07934     13.37106      2.67276        -0.941850      0.026847     -0.346857
O       0.07810     13.23363     15.34310        -0.264220      0.420052     -0.337077
O       3.80787      1.97159      6.75452        -0.327428     -0.281224      0.071215
O       3.76327     13.36624      6.99766         0.073059     -0.460752     -0.215456
O      15.12171      1.93983      6.68727         0.201942     -0.165530      0.487491
O      15.09272     13.15533      7.00406        -0.310538      0.763398     -0.250550
O       3.80221      1.84966     11.00819         0.234044      0.000233      0.016355
O       3.79740     13.27073     11.12235        -0.343029      0.323347      0.369351
O      15.19408      1.98089     10.81519        -0.549223      0.180049      0.532073
O      15.18135     13.16730     11.28006        -0.879092     -0.142907     -0.700170
O       3.67146      5.69933      2.80546         1.405724      0.359845     -0.428129
O       3.86157      5.76824     15.43353        -0.943598     -0.123930     -0.380289
O      15.13786      5.77956      2.56584        -0.296402      0.006096     -0.010905
O      15.11788      5.79063     15.31211         0.166248     -0.742837     -0.948871
O       3.70191      5.71940      6.74145         0.843033      0.067985     -0.257201
O      15.02495      5.57511      6.99475         0.787806     -0.190555     -0.658845
O       3.80136      5.80819     10.87971        -0.021253     -0.348397      0.104033
O      15.13287      5.49070     11.04898         0.242353      0.283861      0.221840
O       3.57575      9.51037      2.59839         1.587881     -0.079199      0.057942
O       3.85875      9.44887     15.31858        -0.140810     -0.199603     -0.249465
O      15.16601      9.51807      2.48226        -0.613217     -0.049620      0.016904
O       0.01110      9.33460     15.11044        -0.572383      0.130366     -0.034161
O       3.68934      9.39050      6.92973         0.727314      0.674139     -0.767599
O      15.16217      9.53173      6.87706        -0.856017      0.628569     -0.292843
O       3.73103      9.22154     10.92066         0.984484      0.506732     -0.142095
O       0.02746      9.55536     11.08577        -1.659491     -0.388677      0.555662
O       7.57500      2.00399      2.50517         0.544537     -0.377062     -0.038605
O       7.60805      1.90265     15.39960         0.066209     -0.227306      0.132946
O       7.56210     13.34414      2.64865         1.572455     -0.488969     -0.271510
O       7.55872     13.38189     15.25562         0.821492     -0.341675      0.119643
O       7.55758      1.91485      6.82251         0.494429     -0.033986     -0.599347
O       7.58239     13.24730      6.94541        -0.562388     -0.336824     -0.289800
O       7.55654      1.86504     11.07604         0.132880      0.106663     -0.014190
O       7.56074     13.17514     11.02375         0.122047      0.132003     -0.022379
O       7.69244      5.68188      2.46244        -1.395697      0.036525      0.237068
O       7.53434      5.60259     15.26023         0.858315      0.263416      0.056326
O       7.53640      5.60326      6.89056         1.005011     -0.173426     -0.931601
O       7.63357      5.58145     11.23672        -0.168167      0.060523     -0.644726
O       7.57684      9.65867      2.59052        -0.177659     -0.711965     -0.130925
O       7.56673      9.52778     15.26414        -0.724553      0.189129      0.209356
O       7.61034      9.59480      6.77531        -0.903834      0.051651     -0.532459
O       7.56562      9.64515     11.01419        -0.679078     -0.241142      0.047764
O      11.40849      2.04744      2.56039         0.496235     -0.629353     -0.407579
O      11.38289      1.80614     15.28227         0.269867      0.129531      0.135277
O      11.49399     13.32176      2.60819        -0.117433     -0.396955     -0.392286
O      11.43779     13.27598     15.20148         0.475738      0.427866     -0.246075
O      11.32932      1.81389      6.82963        -0.860203     -0.066494      0.305303
O      11.37983     13.31178      6.95809        -0.854932      0.383459      0.145733
O      11.35164      1.83732     11.07170         0.304254     -0.769009     -0.225289
O      11.36871     13.31417     11.19082         0.063877      0.041446     -0.654125
O      11.39127      5.77883      2.49424         0.240455      0.039897     -0.292765
O      11.33120      5.73664     15.25386         0.893650     -0.149305      0.205340
O      11.37046      5.81868      6.77161        -0.521927      0.024930      0.259321
O      11.22593      5.88335     11.19509         1.176446     -0.567492     -0.409210
O      11.35560      9.50902      2.43799         0.211443      0.214786     -0.037400
O      11.29504      9.74794     15.15027         0.591120     -0.794592      0.150089
O      11.39473      9.29187      6.86405        -0.491497     -0.240803     -0.152140
O      11.32659      9.23484     10.97275        -0.472443      0.345524      0.230355
O       1.84218      3.76394      2.55615        -0.344976      0.437594      0.314120
O       1.86249      3.87082     15.25770         0.422107     -0.333973      0.051899
O       2.04031      0.04826      2.44229        -0.255297     -0.427619     -0.074930
O       1.74134      0.02752     15.14517         0.463913     -0.309225      0.165206
O      13.38025      3.83297      2.29399        -0.322186      0.873749      0.332986
O      13.21167      3.76926     15.22053        -0.064299      0.644718     -0.182361
O      13.33234      0.03008      2.57025        -0.582939     -0.418272     -0.373025
O      13.51606      0.00827     15.18162        -0.453942     -1.175073      0.381903
O       1.92387      3.80236      6.95553        -0.380299      0.227145     -0.157134
O       1.91919      0.00640      6.82234        -0.509274     -0.053203      0.136758
O      13.09687      3.81853      6.67865        -0.222257      0.510530      0.312858
O      13.20742      0.05685      6.83221         0.286465     -1.505078      0.545551
O       2.03456      3.71721     10.94502        -0.666165      0.715038      0.148638
O       1.84108     15.15264     11.06699        -0.002372      0.992436      0.137612
O      13.14029      3.69350     11.13530         0.010463      0.312633     -0.087579
O      13.33543     15.13002     11.09231        -0.113361      0.543554     -0.772393
O       1.87222      7.66120      2.61834        -0.134973     -0.175448      0.052575
O       1.85316      7.47322     15.43207         0.578135      1.458424     -0.340017
O      13.20812      7.68089      2.48761         0.606591     -0.308819     -0.167860
O      13.14428      7.64975     15.29046        -0.170898     -0.843936     -0.443429
O       1.71840      7.54775      6.83327         0.098061      0.506148     -0.654399
O      13.48605      7.65684      6.81694        -0.795361     -1.490025     -0.650491
O       1.74499      7.50823     11.14842        -0.309644     -0.712912     -0.041250
O      13.37695      7.50596     11.08186         0.149810     -0.475673      0.434817
O       1.85395     11.49832      2.51722         0.003963     -1.719819      0.160386
O       1.78497     11.27933     15.07944         0.338515      1.018844      0.058688
O      13.34045     11.38055      2.50698        -0.152438      0.783606     -0.232637
O      13.51369     11.42417     15.37755        -0.834114     -0.520334     -0.857195
O       1.85151     11.47648      6.98453         0.460591     -1.637881      0.087983
O      13.04873     11.27012      6.90812         0.639144      2.051837     -0.072761
O       1.93199     11.32418     11.05517         0.524319     -0.821360      0.250834
O      13.12592     11.22012     11.00605         0.226678      0.860257      0.312407
O       5.72721      3.80870      2.58827        -0.270065      0.232231     -0.081964
O       5.67283      3.80375     15.45598         0.265895      0.232981     -0.425592
O       5.69641     15.19296      2.62230        -0.156049      0.671340     -0.108463
O       5.67939     15.13760     15.43329         0.182325     -0.103681      0.073952
O       5.67447      3.79088      6.73891         0.035140      0.446773     -0.286588
O       5.65925      0.00718      6.79253         0.092628     -0.202497     -0.039724
O       5.67628      3.83285     10.98835        -0.177055     -1.039508     -0.082476
O       5.63252      0.05725     11.00806         0.350777     -1.175410     -0.076929
O       5.78594      7.57655      2.65829        -0.633805      0.260181     -0.136283
O       5.80938      7.60365     15.24081        -0.266767      0.957802      0.164794
O       5.62905      7.58725      6.77482         0.673524      0.595796     -0.555124
O       5.85541      7.54747     10.90799         0.158102      0.741467     -0.079478
O       5.64482     11.37391      2.59583        -0.097915      0.225650     -0.001690
O       5.68793     11.39908     15.19015         0.014763     -0.907417      0.528150
O       5.54202     11.44074      6.75474         0.063961     -0.409664      0.144793
O       5.51335     11.30252     11.04229         0.372514      0.163530     -0.033265
O       9.62269      3.88352      2.41307        -0.481287     -0.204867      0.018002
O       9.41823      3.77505     15.50330         0.732977     -0.476652     -0.582616
O       9.63288     15.16632      2.63026        -0.713766      0.354018     -0.666148
O       9.44069      0.02648     15.21596         0.314562     -2.013058      0.345889
O       9.61666      3.69580      6.78223        -0.508182      1.008632      0.145580
O       9.39475     15.18645      6.72401         0.398853     -0.113434      0.547105
O       9.52384      3.68953     10.95799        -0.012658      1.064625      0.313501
O       9.41453     15.15076     11.18320         0.033203      0.492278     -0.219920
O       9.45135      7.66954      2.48120         0.193596     -0.716312     -0.583533
O       9.50405      7.58264     15.12097        -0.207830      1.075727      0.223638
O       9.29579      7.52681      6.79346         0.552617     -0.158955     -0.274626
O       9.29217      7.57172     10.85617        -0.368414      0.653104      0.001930
O       9.60845     11.43157      2.56240        -0.486985      0.137694      0.041549
O       9.36946     11.49190     15.44422         0.104876     -0.483903     -0.950387
O       9.66908     11.34400      6.83889        -0.467854      0.263620     -0.447194
O       9.53416     11.39880     10.91286        -0.136422     -0.110113     -0.033826
