  # total energy = -7866.61663882 
CRSYTAL
PRIMVEC
    15.010000000000000    0.0000000000000000    0.0000000000000000
     0.0000000000000000   15.010000000000000    0.0000000000000000
     0.0000000000000000    0.0000000000000000    16.400000000000000
PRESSURE
17.5261 17.4206 7.3737 0.061876 -0.024347 -0.035218
PRIMCOORD
320 1
Pb       3.58852      3.63664      4.01093         1.115465      0.558917      0.677731
Pb       3.65505      3.70553     16.35552         0.137711      0.179631      0.074522
Pb       3.82000     14.89069      4.12749        -0.275545     -0.255618      0.020601
Pb       3.81299     14.98857      0.08895        -0.200540     -0.580080     -0.355164
Pb      15.00164      3.79629      4.21238        -0.413158      0.287340     -0.570407
Pb      14.91762      3.69841      0.15538        -0.072072      0.265001     -0.743045
Pb      14.91672      0.00199      4.23623         0.238868     -0.251422     -1.160267
Pb       0.05575      0.01240      0.07990         0.047469     -0.372199     -0.517576
Pb       3.61912      3.70363      8.19987         0.256986      0.440276     -0.152958
Pb       3.72707      0.17583      8.23886         0.022909     -0.334656     -0.345902
Pb      14.84529      3.68250      8.18235         0.510321      0.691302     -0.035024
Pb      14.95624      0.06481      8.22120        -0.021034     -0.190136     -0.308538
Pb       3.75354      3.64336     12.45397        -0.016588      0.151636     -0.936454
Pb       3.67250     14.98522     12.27946        -0.132687     -0.033717      0.035860
Pb      14.89143      3.79807     12.33012         0.018507     -0.768956      0.261224
Pb      14.95977     15.00927     12.33344        -0.337415     -0.041251     -0.236086
Pb       3.90980      7.55208      4.20601        -0.641463     -0.349802     -0.789633
Pb       3.76518      7.59629     16.36361         0.013578     -0.116695     -0.214315
Pb       0.15800      7.53883      4.15834        -1.173138     -0.131357      0.017781
Pb       0.09917      7.41169      0.06904        -1.108912      0.361309     -0.482828
Pb       3.72947      7.51314      8.37540        -0.271331     -0.440934     -0.370462
Pb       0.03798      7.53190      8.21537        -0.019597     -0.184478      0.136517
Pb       3.67304      7.32247     12.39055         0.089050      0.935792     -0.645172
Pb      14.93244      7.53819     12.30718        -0.133432      0.282133     -0.338033
Pb       3.90276     11.07646      4.08256        -0.686319      0.953794      0.458899
Pb       3.76973     11.28381      0.19124        -0.178729      0.136768     -0.917748
Pb       0.07228     11.17779      4.18188        -0.161822      0.434311     -0.633017
Pb       0.08602     11.19307      0.12738        -0.363670      0.287848     -0.813738
Pb       3.69868     11.31124      8.23027         0.551410     -0.507769     -0.206535
Pb       0.04466     11.28718      8.16068        -0.441777     -0.328167      0.374929
Pb       3.72862     11.13052     12.34313        -0.288305      0.002632     -0.307506
Pb       0.00268     11.20807     12.30376        -0.577632      0.131554     -0.217005
Pb       7.41120      3.86504      4.09472         0.086785     -0.563376     -0.095223
Pb       7.44525      3.69122      0.09157        -0.049023      0.047708     -0.230345
Pb       7.51791     14.93946      4.06935        -0.147617      0.066078      0.325157
Pb       7.62247     14.88053      0.04090        -0.458086      0.474192     -0.227294
Pb       7.42530      3.81093      8.29434        -0.079517     -0.278580     -0.816031
Pb       7.37625     14.99058      8.26029         0.632928      0.415791     -0.324967
Pb       7.39985      3.73615     12.40768         0.027320      0.722837     -0.362224
Pb       7.40923      0.08047     12.21781         0.450118     -0.395579      0.284673
Pb       7.64934      7.41950      4.17319         0.233147      0.594690     -0.303047
Pb       7.49614      7.40733     16.38514        -0.293054      0.203705     -0.182912
Pb       7.58560      7.42641      8.17928        -0.248229     -0.238808      0.137933
Pb       7.44579      7.57607     12.22255         0.000734     -0.733175      0.036848
Pb       7.51056     11.09820      4.15820         0.279483      0.117129     -0.073899
Pb       7.46641     11.24405     16.38797        -0.155897     -0.077962      0.348368
Pb       7.56887     11.26670      8.21643        -0.293176     -0.081664     -0.646523
Pb       7.48183     11.32218     12.27717        -0.315703     -0.299437     -0.238998
Pb      11.32449      3.75643      4.19442        -0.374026      0.088321     -0.758632
Pb      11.23552      3.75439      0.09603         0.056530     -0.239875     -0.117449
Pb      11.20063     14.90296      4.08998         0.173730      0.624052     -0.203640
Pb      11.38448     14.98567     16.38912        -0.707527      0.230600      0.075268
Pb      11.17768      3.66916      8.38013         0.003728      0.152877     -1.243388
Pb      11.19512     15.00522      8.20798         0.154190      0.091936     -0.478766
Pb      11.14619      3.74771     12.35119         0.303138     -0.191308      0.006558
Pb      11.16435     14.82721     12.38700         0.649521      1.072688     -0.786663
Pb      11.31703      7.50589      4.11634        -0.255684     -0.164330     -0.040839
Pb      11.23235      7.42023     16.37869         0.736035     -0.010572      0.487572
Pb      11.32249      7.47801      8.24175        -0.142920      0.072448     -0.618225
Pb      11.02834      7.53267     12.34422         0.624485     -0.641986      0.170472
Pb      11.19085     11.20589      4.11092        -0.208678     -0.256002      0.135731
Pb      11.16934     11.35128      0.01857         0.469138     -0.524035     -0.283476
Pb      11.32950     11.39664      8.18675        -0.216865     -0.751247     -0.534825
Pb      11.14803     11.21557     12.35325         1.119349     -0.032253     -0.098545
Ti       1.82789      1.87298      2.13212         0.054272     -1.018506      0.666074
Ti       1.85084      1.82623     14.35429        -0.540297     -0.823625      0.168016
Ti       1.85138     13.12559      2.17047         0.083923     -0.231921      0.197224
Ti       1.83482     13.09228     14.43196         0.482180      0.424157     -0.648917
Ti      13.09576      1.88398      2.06314        -0.549281     -0.139363      1.237098
Ti      13.07870      1.86045     14.46043         0.442600      0.151189     -2.027491
Ti      13.13253     13.11389      1.97107         0.627342      0.202066      1.262471
Ti      13.13113     13.07727     14.36139         0.914798     -0.197367      0.373110
Ti       1.77311      1.86497      6.13019         1.228489      0.402003      0.927652
Ti       1.91211     13.12916      6.22487         0.255478      0.708765     -0.666163
Ti      13.05593      1.87622      6.09623        -0.692027     -0.024201      0.312888
Ti      13.17652     13.13604      6.06201        -0.837536      0.159292      0.513311
Ti       1.75915      1.92620     10.28851         1.072964     -0.231951      0.012731
Ti       1.89239     13.14189     10.25453        -1.146318     -0.174000      0.529651
Ti      13.06223      1.88639     10.35912        -0.099772     -0.884957      0.942039
Ti      13.10392     13.10102     10.24051         0.536025      0.317167      0.224737
Ti       1.81785      5.62071      2.05877         0.160500      0.497171      0.425300
Ti       1.79604      5.60617     14.36355        -0.610687     -0.395887      0.233203
Ti      13.08858      5.65986      2.06795        -0.322654      0.214554      0.693776
Ti      13.10664      5.59308     14.27189        -0.990322      0.283042      1.428753
Ti       1.85898      5.63948      6.17688         0.282901     -0.456746      0.572100
Ti      13.12569      5.67700      6.24128        -0.593236     -0.785098     -0.700124
Ti       1.79038      5.59188     10.41535         0.193292      0.574978     -1.991195
Ti      13.06277      5.62574     10.31460         0.680614     -0.207466     -0.337285
Ti       1.80238      9.35820      2.04244         0.579214      0.479642      0.392067
Ti       1.85908      9.34347     14.32597         0.314674      1.059380     -0.098821
Ti      13.07218      9.40971      2.10566         0.090250     -1.022243     -0.477960
Ti      13.09212      9.32793     14.50206         0.406188      0.638817     -0.740476
Ti       1.95363      9.41247      6.18937        -0.332440     -0.698955      0.092672
Ti      13.17408      9.44293      6.18758        -0.994789     -0.885560     -0.026482
Ti       1.83417      9.37982     10.26609         0.095049     -0.492047     -0.053044
Ti      13.02993      9.34418     10.31621         1.850476      0.818626     -1.021545
Ti       5.58090      1.79977      2.12271         0.431995      0.797029      0.515462
Ti       5.63892      1.87835     14.44678        -0.397969     -1.299788     -0.259047
Ti       5.62280     13.03887      2.14290         0.398138      0.131040     -0.019600
Ti       5.59599     13.08518     14.31530        -0.525384      0.858807      0.876831
Ti       5.64351      1.86819      6.13271         1.214659      0.612715      0.567896
Ti       5.62122     13.11593      6.25951        -0.092247     -0.625442     -1.322406
Ti       5.63622      1.85362     10.32040        -1.151539      1.533055     -0.701159
Ti       5.54398     13.06702     10.27619         0.231117      0.433481     -0.005595
Ti       5.52808      5.62017      1.94879         0.484920     -0.578056      0.601248
Ti       5.57396      5.63080     14.36448         0.630463      0.372776      0.530512
Ti       5.53080      5.59547      6.10734         0.834078     -0.641627      0.835390
Ti       5.54184      5.61906     10.28559         0.698297     -0.309118     -0.080790
Ti       5.63717      9.26380      2.10274         0.868747      0.601075     -0.131557
Ti       5.67935      9.34667     14.33897        -1.122958      0.411056      0.025682
Ti       5.67802      9.25153      6.25736        -0.137693      2.500253      0.802789
Ti       5.59509      9.37203     10.21796        -0.147249     -0.557547      0.674352
Ti       9.32886      1.91222      2.09635         0.824647     -0.122203     -0.230246
Ti       9.36824      1.87405     14.37172         0.482061      0.087333      0.814418
Ti       9.37608     13.12556      2.08339         0.218232     -0.316278     -0.004513
Ti       9.33517     13.13420     14.36569         0.155824     -0.260410      0.690749
Ti       9.33298      1.83707      6.14607        -0.114496      0.579117      0.645291
Ti       9.37575     13.15983      6.18399         0.546662     -1.253555     -0.157748
Ti       9.37260      1.89305     10.31108         0.410552     -1.352071     -0.965402
Ti       9.36557     13.09316     10.22198         0.023141      1.404755      0.001722
Ti       9.34175      5.57021      2.00153         0.658796      0.278616      1.366327
Ti       9.32190      5.54799     14.48022        -0.029671      0.866310     -1.032891
Ti       9.36998      5.53746      6.14941         0.148211      0.815117      0.770571
Ti       9.35326      5.58557     10.25141        -0.590400      1.285872      0.757294
Ti       9.37617      9.31936      1.88216        -0.393425     -0.091227      1.024077
Ti       9.38291      9.34428     14.41394        -0.646893     -0.120635      0.287105
Ti       9.36982      9.36792      6.34694         0.495015     -0.073259     -1.272490
Ti       9.35943      9.39335     10.32319        -1.045703     -1.143167     -1.131482
O       1.88517      1.78204      0.35283         0.076723      0.630727     -1.201810
O       1.95686      1.82778     12.51969        -0.324868     -0.076661      0.580280
O       1.84205     13.10648      0.33718         0.127012     -0.266136     -0.273458
O       1.77059     13.16114     12.56261         0.309037     -0.293319      0.177292
O      13.12857      1.92708      0.24098         0.197133     -0.239628     -0.500645
O      13.10322      1.82536     12.55488        -0.156955      0.269000      1.327391
O      13.20930     13.22617      0.14441        -0.434377     -0.632493      0.942796
O      13.15013     13.03676     12.53930        -0.071949      0.445164     -0.111756
O       1.80539      1.92380      4.32370        -0.063740     -0.180863      0.185118
O       1.90379     13.16178      4.41545        -0.257555     -0.027287     -0.567924
O      13.12480      1.82516      4.27766         0.040935      0.367309      0.350724
O      13.14130     13.17876      4.25746         0.035499      0.065973      0.432602
O       1.69513      1.85471      8.42899         0.243641      0.169699      0.596449
O       2.04158     13.11295      8.44888        -0.434368      0.309653     -0.462256
O      13.14197      1.88604      8.52959        -0.092539     -0.288230     -0.332415
O      13.04992     12.98474      8.37702         0.440629      0.740346      0.674289
O       1.75831      5.66893      0.23020         0.224449     -0.342873     -0.207383
O       1.73001      5.57629     12.51932         0.855016      0.594115      1.221454
O      13.03769      5.62346      0.27298         0.712700     -0.130199     -0.591086
O      13.13746      5.72870     12.46468        -0.251555     -0.086544      0.832803
O       1.82649      5.47631      4.34908         0.288328      0.756825     -0.423602
O      12.94208      5.61559      4.35594         0.794240     -0.217916      0.908099
O       1.77661      5.60608      8.51757         0.298613      0.050370      0.267044
O      13.04453      5.60229      8.45116         0.079110     -0.280470      0.156095
O       1.89125      9.43251      0.19355        -0.320671     -0.470869      0.635152
O       1.87823      9.38082     12.43696         0.037713      0.109031      1.053844
O      13.07474      9.41260      0.25364         0.259341     -0.080450      0.512833
O      13.13543      9.32475     12.58035        -0.261341     -0.285202      0.253730
O       1.86129      9.40111      4.33914         0.222003     -0.312407      0.164737
O      13.14561      9.34771      4.34574        -0.196995      0.122391      0.419681
O       1.83700      9.30261      8.38535         0.087944      0.180713     -0.081081
O      13.20055      9.47360      8.39769        -0.394308     -0.060166      0.951032
O       5.58664      1.88377      0.29907        -0.066039      0.134229     -0.573704
O       5.50726      1.80502     12.57438         0.327098     -0.072311      0.056574
O       5.55020     13.05485      0.32513         0.459858     -0.145609     -0.644259
O       5.62476     13.26213     12.50311         0.126864     -0.687675      0.015846
O       5.68834      1.82800      4.34688        -0.152202     -0.175709     -0.962875
O       5.65753     13.19634      4.31628        -0.110014     -0.129589      1.101954
O       5.74053      1.96547      8.47622        -0.017104     -0.104331      0.657556
O       5.47167     13.12859      8.46294         0.301271     -0.174464     -0.608566
O       5.65220      5.54274      0.13415        -0.467229      0.228485      0.201104
O       5.61844      5.60756     12.55899        -0.034503      0.558182     -0.231223
O       5.48060      5.70402      4.27779         0.358779     -0.151121      0.574626
O       5.46602      5.46378      8.49109         0.268671      0.270057     -0.189329
O       5.66125      9.39855      0.31310        -0.196037     -0.121506     -0.658519
O       5.53137      9.41290     12.53201         0.219070     -0.269942      0.350466
O       5.71358      9.29670      4.41942        -0.351039     -0.141283     -1.069582
O       5.61140      9.38082      8.43373         0.108527      0.141608     -0.209797
O       9.37071      1.90956      0.24101        -0.573796     -0.201081      0.481057
O       9.36688      1.88483     12.58287         0.330920      0.356656     -0.410162
O       9.43744     13.11213      0.22233        -0.404394      0.609214      0.381386
O       9.35863     13.06502     12.54295        -0.130426     -0.190326     -0.029699
O       9.36898      1.73294      4.35994        -0.100971      0.613536     -0.278457
O       9.49689     13.17442      4.34099        -0.584310     -0.393986     -0.884969
O       9.27526      1.89255      8.41944         0.659794     -0.457036      1.668055
O       9.44164     13.10392      8.39217        -0.174121      0.179045      0.484851
O       9.34970      5.56440      0.18124        -0.165728      0.076586      0.530184
O       9.20558      5.58434     12.62683         0.840296      0.021381     -0.423701
O       9.29120      5.57479      4.33620         0.232277      0.069654     -0.070753
O       9.49363      5.60763      8.46432        -0.113136      0.258977     -0.170196
O       9.26382      9.22504      0.07803         0.471461      0.637303      1.216416
O       9.45713      9.31678     12.55086        -0.563923      0.512557     -0.168685
O       9.22128      9.45339      4.49413         0.192218     -0.360163     -0.498810
O       9.28839      9.35526      8.46054         0.089869      0.094149      0.825070
O       3.70003      1.77430      2.50321         0.779509     -0.009690     -0.453963
O       3.75061      2.03716     14.59196        -0.496504      0.129701      0.549911
O       3.78646     13.11663      2.33056        -1.358652      0.130551      0.462235
O       3.76896     12.91098     14.69425         0.158106     -0.267198     -0.256119
O       0.01099      2.01839      2.38584        -0.742698      0.152112     -0.232245
O      14.92601      1.66702     14.65567         2.104947     -0.332473      0.140331
O      14.98840     12.93935      2.40943        -0.227052      0.186901     -0.389667
O      15.00968     13.25397     14.67984        -0.265162      0.402062     -0.107376
O       3.87425      1.85427      6.45567        -2.919377     -0.320538      0.225635
O       3.77527     13.29310      6.28529         0.398487      0.389000      0.655512
O      14.96775      1.91279      6.45305        -0.423153     -0.038617     -0.313462
O       0.03693     12.99413      6.44234        -0.479132      0.320519      0.172760
O       3.70613      1.85471     10.32618         0.425029     -0.301839      0.505797
O       3.70782     13.21124     10.58381         0.214965      0.168646      0.355546
O      14.96352      2.08473     10.66244         0.104023     -0.663251     -0.436202
O      14.95326     13.03983     10.37080         0.980996     -0.197965      0.269799
O       3.71708      5.87903      2.17219        -0.989648      0.207936      0.281327
O       3.67939      5.53205     14.62630         0.024062     -0.280917     -0.080490
O      14.93351      5.50196      2.29185         1.229590     -0.508802      0.337525
O      14.94450      5.83837     14.59073         0.830733      0.157800      0.191948
O       3.72807      5.68277      6.58130        -0.430881      0.451807     -0.589616
O       0.00122      5.46797      6.39214        -0.883136     -0.036357      0.091564
O       3.74399      5.75674     10.66057        -0.687056     -0.037644     -0.053088
O      14.97608      5.40344     10.66346        -0.739108      0.707399     -0.706126
O       3.71886      9.15072      2.26125         0.512674      0.137654      0.500557
O       3.73038      9.47416     14.60668         1.051350      0.274496      0.241324
O      14.97684      9.62319      2.34928        -0.360394     -0.471686     -0.278912
O       0.04068      9.22357     14.58253        -0.941879     -0.232703      0.200359
O       3.76363      9.20283      6.43529        -0.043037     -0.279834     -0.034984
O       0.03642      9.57897      6.31794        -0.171553      0.071809      0.466225
O       3.73606      9.25641     10.47747         0.443287     -0.209952      0.164332
O      14.98193      9.42918     10.48156        -0.210573      0.336589      0.383299
O       7.46989      2.15129      2.38436        -0.788771     -0.457387     -0.412399
O       7.48708      1.70984     14.55389        -0.318956      0.006692      0.392791
O       7.52996     12.95300      2.25580         0.479206      0.237262      0.281008
O       7.48784     13.34960     14.69548         0.020445     -0.398183     -0.262403
O       7.54145      2.05699      6.45619        -0.677693     -0.116831     -0.026490
O       7.52008     13.04170      6.40672        -0.528367     -0.296049      0.487720
O       7.56759      1.98101     10.70609        -1.342579     -0.045744     -0.318091
O       7.44714     13.07178     10.38706         0.494758     -0.301613      0.574116
O       7.47726      5.34485      2.22156         0.045080      0.254921      0.034293
O       7.46499      5.74895     14.62351         0.403269     -0.097462      0.312689
O       7.48553      5.47756      6.52018        -0.549330      0.332215     -0.208555
O       7.48644      5.55751     10.43222         0.595169     -0.691287      0.253867
O       7.56592      9.51432      2.30204        -0.776705      0.174298      0.143790
O       7.49896      9.10567     14.63474         0.670793      0.458119     -0.446483
O       7.47577      9.56011      6.57401        -0.103315     -0.044877     -0.033134
O       7.44205      9.47965     10.72666         1.018120      0.596375     -0.474710
O      11.20923      1.78816      2.28555         0.772594     -0.523143      0.102756
O      11.26665      2.07943     14.72964        -0.861549     -0.164667     -0.217377
O      11.28742     13.29520      2.24504        -0.546555      0.131571     -0.013851
O      11.27682     12.94503     14.67250        -1.320068      0.150126     -0.424546
O      11.20834      1.72603      6.43788         0.809781      0.092380      0.265747
O      11.31596     13.27825      6.35090        -0.534739     -0.049939      0.450425
O      11.22947      1.65972     10.68885        -0.585195      0.846276     -0.540693
O      11.22640     13.22377     10.43718        -0.270740     -0.146784      0.478074
O      11.23893      5.80116      2.30542        -1.149070      0.076116      0.085679
O      11.21897      5.33503     14.72143         1.143351      0.667304     -0.851740
O      11.20834      5.93044      6.44790         0.502368     -0.661405     -0.168183
O      11.25681      5.74187     10.64509        -0.817217      0.254260     -0.072812
O      11.18527      9.12407      2.35648         0.544981      0.390946     -0.090999
O      11.19457      9.57039     14.65926         1.106773      0.274015     -0.092796
O      11.21125      9.30492      6.41015         1.417597     -0.578197      0.363633
O      11.21806      9.29334     10.56778        -0.163799     -0.471096      0.025665
O       1.96994      3.79327      2.33592         0.161979     -0.562830     -0.429143
O       1.67384      3.66281     14.61871         0.136065      1.356425      0.399122
O       1.77856     14.95389      2.34953        -0.175791      0.970730      0.345018
O       2.08142     14.95207     14.72429        -0.076517      1.064736     -0.089379
O      12.93336      3.76001      2.26123         0.284807     -0.330840      0.495310
O      13.39784      3.77315     14.61302        -0.340255      0.083809     -0.006424
O      13.25876      0.02379      2.26154         0.327563     -0.761488     -0.025585
O      12.92593     14.98820     14.59595        -0.057800     -0.093295      0.003525
O       1.86248      3.73135      6.40309         0.566562     -0.500587      0.295107
O       1.85287      0.03842      6.51795        -0.347181     -0.237569     -0.095204
O      13.02893      3.70745      6.47767        -0.261688      0.621608     -0.163982
O      13.19096      0.02594      6.35564         0.738596     -0.728593      0.488037
O       1.98216      3.77880     10.60718         0.313775     -1.224689     -0.014225
O       1.74317     15.00816     10.55885        -0.100257      0.396661     -0.248175
O      12.99376      3.74009     10.66295        -0.546887      0.307668     -0.299447
O      13.13654      0.01248     10.58644         0.818002     -1.176644     -0.273510
O       1.57723      7.51478      2.35674         0.476818     -0.277203     -0.366558
O       2.06731      7.50331     14.66367        -0.526159     -0.619725     -0.329129
O      13.29204      7.50396      2.44158         0.023768      0.778092     -0.326309
O      12.97075      7.48009     14.77440        -0.270647     -0.295791     -0.620343
O       1.66445      7.46889      6.33725         0.364870      0.891385      0.092733
O      13.28559      7.47402      6.50411         0.061444      1.427920     -0.037779
O       1.84099      7.49634     10.49789        -0.515840     -0.225970      0.448289
O      13.30842      7.46286     10.35915        -0.206379      1.032102      0.471080
O       1.91621     11.20205      2.40427         0.822984      0.188820     -0.127071
O       1.73121     11.27695     14.66752        -0.076702     -1.356473     -0.176495
O      12.91531     11.25110      2.42875        -0.044589      0.299392     -0.684213
O      13.25974     11.21306     14.65052         0.291359      0.173856      0.060686
O       2.13527     11.28773      6.41424        -0.468979     -0.837183      0.250483
O      12.96699     11.28366      6.34728         0.248341     -0.247444     -0.034080
O       2.00587     11.21939     10.39298        -0.175835      1.012592      0.577032
O      12.98939     11.24163     10.64840        -0.036894     -0.233403     -0.351722
O       5.39947      3.81335      2.24550        -0.313045     -1.522919      0.437028
O       5.73461      3.78571     14.51118         0.077464     -1.477330      0.463373
O       5.65927     14.92866      2.31939         0.520361      1.561756     -0.034710
O       5.40019     14.94867     14.75460         0.429932      0.847495     -0.379872
O       5.54710      3.78649      6.32111        -0.020966     -0.273654      0.121124
O       5.82136      0.02585      6.57486        -0.419601     -0.354905     -0.411171
O       5.55607      3.77567     10.69173         0.063475     -1.140821      0.012909
O       5.62280      0.01271     10.42165         0.514980     -0.168546      0.419945
O       5.84454      7.44772      2.34303        -0.022922      0.379849     -0.077235
O       5.66346      7.49733     14.68395        -1.534148     -0.029649      0.035151
O       5.73921      7.50877      6.53762        -0.007992     -2.191804     -0.077768
O       5.82626      7.49450     10.44012        -0.618727      0.288639      0.280905
O       5.54566     11.20425      2.43258        -0.045750     -1.309711     -0.050955
O       5.91808     11.22427     14.60594        -0.303301      0.245950     -0.284608
O       5.47785     11.22529      6.38621        -0.036784      0.739489      0.195115
O       5.45436     11.23285     10.55884         0.295784      0.558042      0.196144
O       9.59864      3.74175      2.50480        -0.459763      0.572113     -0.587281
O       9.27034      3.73232     14.69960        -0.718157     -0.764910     -0.186112
O       9.21777      0.05556      2.38149        -0.148012     -1.436786     -0.558246
O       9.47658      0.00147     14.58068         0.559553     -0.469785      0.345958
O       9.52853      3.76351      6.51147         0.463204     -0.810254     -0.250869
O       9.28726     14.95009      6.42368        -0.285554      1.510890      0.559774
O       9.60945      3.76232     10.41860        -0.138686     -0.786043      0.654481
O       9.31758     14.99951     10.64718        -0.435289     -0.627590     -0.436757
O       9.16466      7.46548      2.36376         0.018149     -0.368607     -0.361760
O       9.71832      7.49243     14.68435        -0.986662     -0.758542     -1.010160
O       9.14231      7.48078      6.38735         0.010895      0.090858      0.295840
O       9.20197      7.50201     10.50888         0.576257      0.177902      0.358878
O       9.63579     11.20345      2.18704        -0.326758      0.550233      0.210432
O       9.13925     11.24310     14.73906         0.351051      0.262751     -0.790511
O       9.48859     11.27623      6.40939        -0.074272      0.231520      0.605237
O       9.47757     11.22277     10.50479        -0.300235      0.962852      0.384469
