  # total energy = -7878.64320291 
CRSYTAL
PRIMVEC
    15.3600000000000000    0.0000000000000000    0.0000000000000000
     0.0000000000000000   15.3600000000000000    0.0000000000000000
     0.0000000000000000    0.0000000000000000    17.440000000000000
PRESSURE
1.30647 1.2011 -0.936538 0.061932 0.211544 -0.053333
PRIMCOORD
320 1
Pb       3.80411      3.82357      4.43659         0.031339     -0.251730     -0.586883
Pb       3.93733      3.74094     17.37812        -0.074990     -0.033771     -0.025795
Pb       3.77793     15.29662      4.40297         0.022902      0.633273      0.046445
Pb       3.84343      0.00230     17.38329        -0.097605     -0.081749     -0.227665
Pb       0.01920      3.79367      4.44739         0.138450     -0.054239     -0.874520
Pb       0.16789      3.85950      0.07906        -0.668861     -0.030036     -0.458274
Pb       0.07239     15.28128      4.33400        -0.160026      0.138075     -0.146676
Pb      15.10310     15.26232      0.02807         0.318803      0.345662     -0.227370
Pb       3.72010      3.94821      8.63118         0.386998     -0.564127     -0.113303
Pb       3.83743     15.35884      8.83384        -0.144615      0.165544     -0.522370
Pb      15.06109      3.98019      8.65534         0.353742     -0.805040      0.315630
Pb      15.23008      0.16670      8.75234         0.313561      0.144561     -0.013699
Pb       3.85131      3.74205     12.93353         0.150041      0.239251     -0.326110
Pb       3.70815     15.24484     12.91349         0.239766      0.160168     -0.182433
Pb       0.02006      3.65830     13.14592        -0.511311      0.351182     -0.366124
Pb       0.03567     15.34722     12.95866        -0.546236      0.168741     -0.372419
Pb       3.90988      7.66045      4.28661        -0.138855     -0.252479     -0.134110
Pb       3.66677      7.59489      0.01475         0.165882      0.135522     -0.108965
Pb       0.21737      7.72852      4.32806        -0.658732      0.311603     -0.570293
Pb      15.24710      7.74884     17.36457         0.220522     -0.461030     -0.057432
Pb       3.95166      7.66091      8.75110        -0.352477     -0.183876     -0.988961
Pb      15.34332      7.63816      8.71188        -0.240533      0.338379     -0.399420
Pb       3.79405      7.60266     13.05491         0.184251     -0.719693     -0.686022
Pb       0.07538      7.66007     13.15927        -0.698750     -0.153102     -0.500394
Pb       3.62849     11.50231      4.31756         0.824440      0.146649     -0.114315
Pb       3.99513     11.33643     17.33017        -0.333763      0.778738     -0.088777
Pb       0.12143     11.66635      4.21023        -0.490659     -0.390756     -0.131232
Pb      15.22070     11.48740     17.30613         0.232483      0.173594     -0.094877
Pb       3.78751     11.58825      8.73139         0.010426      0.032398      0.110909
Pb      15.30998     11.35630      8.72523        -0.196029     -0.064562     -0.412112
Pb       3.94101     11.45961     12.97513        -0.426074      0.662334     -0.364073
Pb       0.16352     11.48968     13.16812        -0.363573      0.038965     -0.560995
Pb       7.71854      3.69654      4.42656         0.091907     -0.422306     -0.374611
Pb       7.63495      3.87097     17.36208         0.292699     -0.019026     -0.061584
Pb       7.71355     15.35497      4.39954         0.593084      0.329861     -0.549677
Pb       7.41412     15.31493     17.36112         0.453023      0.275084     -0.040644
Pb       7.65242      3.82598      8.71006         0.069749      0.142941     -0.691768
Pb       7.66845     15.26832      8.59950         0.019592      0.067731      0.102733
Pb       7.83951      4.00713     13.26863        -0.355054     -0.321072     -0.801756
Pb       7.63640      0.18431     13.03170        -0.294616     -0.297458     -0.596990
Pb       7.59196      7.47857      4.26461         0.181050      0.659059      0.818236
Pb       7.58050      7.66714      0.00198         0.304706     -0.045895      0.065224
Pb       7.60251      7.86219      8.66423         0.237105     -0.819844     -0.594945
Pb       7.58910      7.61988     12.96746         0.579904     -0.081178     -0.408993
Pb       7.72232     11.37663      4.40144        -0.658780      0.540628     -0.359106
Pb       7.52597     11.63090     17.35920         0.509190     -0.131416     -0.140435
Pb       7.67392     11.50060      8.69754         0.288486      0.336362     -0.411163
Pb       7.84748     11.60669     13.04941        -0.222196      0.146848     -0.374034
Pb      11.54502      3.75266      4.36479        -0.561279     -0.402244     -0.644862
Pb      11.60186      3.80728      0.08886        -0.451168      0.213298     -0.576724
Pb      11.58537     15.29313      4.31172        -0.756735      0.281292     -0.659172
Pb      11.36170     15.25406     17.32688         0.284938      0.118712     -0.030884
Pb      11.52313      4.07056      8.71423        -0.447308     -0.646300     -0.368685
Pb      11.45217     15.29179      8.65568        -0.046652      0.282234      0.055604
Pb      11.56756      3.68486     13.31747         0.241853      0.087772     -0.044327
Pb      11.45566     15.33442     13.06327         0.307700     -0.253305     -0.459998
Pb      11.54521      7.68556      4.21018        -0.037420      0.056459     -0.188548
Pb      11.43284      7.58613      0.05854         0.271394      0.036592     -0.728389
Pb      11.55222      7.68994      8.68627         0.068689      0.339161     -0.489064
Pb      11.38989      7.67856     13.06696         0.159779      0.221753      0.132340
Pb      11.57130     11.37785      4.38588        -0.027179      0.147407     -0.389577
Pb      11.32892     11.48050     17.36858         0.367822      0.038573     -0.370507
Pb      11.52589     11.53122      8.84908         0.178943     -0.483032     -0.917686
Pb      11.46787     11.43068     12.99353         0.585495      0.364957      0.053775
Ti       1.83250      1.85169      2.32505         0.604073      0.995316      0.179399
Ti       1.80920      1.83966     15.44800        -0.148574     -0.324730      1.453535
Ti       2.03139     13.51414      2.15754        -1.255567     -1.103122     -0.578633
Ti       1.95222     13.42738     15.43254        -0.315169      0.079824     -1.084541
Ti      13.33906      1.89802      2.21803        -0.004885     -0.441361     -0.269863
Ti      13.37886      1.88537     15.47282        -0.027011     -0.152481     -1.231888
Ti      13.37055     13.40060      2.27411         0.216620     -0.069441     -0.326378
Ti      13.45619     13.36729     15.30651        -1.225878      0.704206      0.630952
Ti       1.80628      1.91428      6.72640         1.105860     -0.412876     -0.107449
Ti       1.87043     13.44689      6.81802         0.138772      0.565664     -0.076888
Ti      13.28102      1.81001      6.64553         0.782959      1.095977      0.190380
Ti      13.51580     13.37956      6.66752        -0.371323     -0.358455     -0.182266
Ti       1.86040      1.93733     10.98777        -0.628747     -0.516592      0.097660
Ti       1.82887     13.35126     10.95721         0.768736      1.255361     -0.431101
Ti      13.26316      2.01880     11.03770         2.168289     -0.696530     -1.352861
Ti      13.42704     13.46296     10.93060        -0.065948      0.092011      1.324998
Ti       1.97513      5.76104      2.29170        -0.794971     -0.346468      1.511869
Ti       1.98758      5.66509     15.40352        -1.117179      0.521434      0.346423
Ti      13.46463      5.76162      2.33625         0.334438      0.130139     -0.054471
Ti      13.43764      5.71952     15.48922         0.082874     -0.264034     -0.630405
Ti       1.84720      5.76403      6.66060         2.037849      0.333650      0.439407
Ti      13.41360      5.74469      6.49883         0.002830      0.807861     -0.385249
Ti       1.79490      5.68888     11.03146         0.600133     -0.893904      0.417802
Ti      13.35968      5.80946     11.15541         0.983400      0.011253     -1.086833
Ti       1.93134      9.63813      2.17803        -0.636880     -0.327576      0.353102
Ti       2.05260      9.59448     15.36402        -1.142075      0.143167      1.156971
Ti      13.38734      9.62780      2.23009         0.842409     -0.606663      0.639782
Ti      13.45430      9.61134     15.31299        -1.281770     -0.346332     -0.132772
Ti       1.93771      9.56937      6.76121        -0.713786     -0.446805     -0.760502
Ti      13.43879      9.54233      6.64460        -0.111928      0.049463      1.096825
Ti       1.96014      9.47385     11.05338        -1.061511      0.940050     -0.671874
Ti      13.43597      9.60379     11.07705         0.501359     -0.489181     -0.537753
Ti       5.65410      1.93264      2.33512        -0.021258      0.455916     -0.536263
Ti       5.62185      2.01526     15.28512         0.812311     -0.790666     -1.693036
Ti       5.73917     13.53565      2.36279         0.494054     -0.583427     -1.287566
Ti       5.70102     13.49074     15.24121        -0.097380      0.466069      0.310415
Ti       5.70938      1.83496      6.73981         0.047729      0.347547     -0.426824
Ti       5.76340     13.35692      6.70581         0.453779      0.583783      0.044802
Ti       5.75707      1.89793     10.99177        -0.322486      0.320414     -1.052774
Ti       5.82718     13.42600     11.02576        -0.430491      0.564342      0.756414
Ti       5.80030      5.75714      2.35083        -0.265219     -1.381540      0.131727
Ti       5.79189      5.83414     15.30066        -0.283634     -2.085167     -0.092373
Ti       5.76219      5.67444      6.65034        -0.239554      0.957919     -0.467265
Ti       5.70606      5.72738     10.93787         0.287024     -0.647418      2.417186
Ti       5.72475      9.68573      2.29724         0.625473      0.163799     -0.443148
Ti       5.82587      9.49481     15.30875         0.227645      0.948011      1.153147
Ti       5.64126      9.67116      6.69691         1.035947     -1.254590     -0.223931
Ti       5.79625      9.60270     11.04234        -0.344029     -0.547825     -0.119876
Ti       9.44264      1.92772      2.04895         1.173963     -1.170464      1.988368
Ti       9.42917      1.86086     15.38489         1.100194      1.047735      0.804275
Ti       9.55019     13.32449      2.28241        -0.279695      1.960275      0.170705
Ti       9.54164     13.46027     15.31134         0.851971     -0.464587     -0.192798
Ti       9.57702      1.91307      6.79943        -0.304052      0.482984     -1.603577
Ti       9.72690     13.34721      6.62712        -1.441783      0.844733     -0.169749
Ti       9.56405      2.01638     10.90808        -0.202714     -1.287045      1.168096
Ti       9.67044     13.45765     10.89951        -0.639589      0.811328      0.862276
Ti       9.59360      5.68876      2.42413         0.713096     -0.613087     -1.530376
Ti       9.58614      5.76444     15.41047         0.757267      0.064363      0.256299
Ti       9.61067      5.85328      6.57728        -1.751382     -1.067546      0.440460
Ti       9.61102      5.72202     11.03368        -0.405467      0.221084     -0.598350
Ti       9.48865      9.56317      2.31040         0.546638      0.174651      0.618126
Ti       9.55759      9.57904     15.41581         1.338730     -0.455414     -0.870062
Ti       9.54495      9.56869      6.60633         0.893594     -0.050957      0.098976
Ti       9.52477      9.62070     11.02386         1.090817     -0.383735      0.475798
O       1.88129      1.88474      0.55824         0.239826      0.216939     -0.447914
O       1.67300      1.90528     13.74904         0.279544     -0.219329     -1.926506
O       1.97050     13.44807      0.40001         0.224129     -0.048122     -0.110973
O       1.98264     13.40988     13.61363        -0.216958      0.101576     -0.444903
O      13.40983      1.78693      0.42306        -0.145240      0.305394      0.387732
O      13.42604      1.93502     13.58459        -0.294988      0.173234      0.149197
O      13.35560     13.37069      0.50553         0.223332     -0.184355     -0.654864
O      13.27791     13.36619     13.60062         0.402026      0.044807     -1.221455
O       1.83012      1.77830      4.96585         0.086364      0.221751     -1.115407
O       1.85552     13.56169      5.04065         0.259265     -0.421377     -1.029568
O      13.20021      1.84143      4.88070         0.397471      0.505161     -0.972821
O      13.55278     13.38021      4.88154        -0.337859     -0.143011     -0.386416
O       1.79989      1.90935      9.26497         0.167900      0.066070     -1.793426
O       1.96187     13.51779      9.17024        -0.593511     -0.406148     -0.117276
O      13.42824      2.06626      9.17991        -0.182934     -0.341841      0.265316
O      13.41603     13.49893      9.17829         0.050882     -0.265865     -0.763146
O       1.95219      5.77967      0.56787         0.367654     -0.693143     -1.389776
O       1.96042      5.72462     13.68008        -0.071782      0.126236     -1.018786
O      13.41741      5.74002      0.56753        -0.289896     -0.182809     -1.007204
O      13.41740      5.64967     13.70424        -0.114511      0.305445      0.109824
O       1.96408      5.85511      4.89947        -0.245319      0.097411     -0.964365
O      13.58881      5.67848      4.72899        -0.529343      0.198132     -0.018177
O       1.90487      5.64855      9.26498        -0.296838      0.289832     -0.179542
O      13.36212      5.82562      9.26233         0.188132     -0.024303      0.707216
O       1.88614      9.47446      0.44681         0.398633      1.013033     -1.574781
O       1.97158      9.57809     13.62819         0.358816     -0.130454     -1.664709
O      13.30880      9.61067      0.49541         0.462685      0.387314     -0.978048
O      13.47868      9.68822     13.53510        -0.245012     -0.234535      0.190198
O       1.94536      9.43845      4.96887         0.470014      0.158177     -0.747716
O      13.43875      9.54600      4.93066         0.029924      0.146339     -1.619504
O       1.82329      9.54112      9.28478         0.199703     -0.304709      0.315182
O      13.50706      9.49835      9.23075         0.076443     -0.169588      0.263661
O       5.57769      1.94821      0.48596         0.266760      0.078734      0.295980
O       5.71824      1.97357     13.45655         0.163895      0.136960      0.545191
O       5.74847     13.63191      0.51607        -0.144872     -0.583329      0.026375
O       5.70356     13.63107     13.48898         0.013517     -0.982121      0.135618
O       5.71380      1.80848      4.92900         0.068090      0.188244      0.100204
O       5.76976     13.27387      4.96453        -0.306495      0.317630     -0.660557
O       5.84556      1.87121      9.16139        -0.199635     -0.256522      0.862132
O       5.86326     13.51736      9.29196        -0.346675     -0.376674     -1.161399
O       5.90507      5.70101      0.60119        -0.380312     -0.071050     -0.969813
O       5.81988      5.75389     13.51565         0.055142      0.304972      0.469655
O       5.75346      5.75325      4.84983        -0.143294     -0.094583     -0.312144
O       5.75432      5.78229      9.24714        -0.009371      0.183358     -2.591425
O       5.76393      9.59643      0.49638         0.138188      0.146720      0.126588
O       5.82933      9.53510     13.57824        -0.270457     -0.231109     -0.826669
O       5.72747      9.85198      4.95774        -0.562695     -0.331588     -0.821857
O       5.80476      9.48814      9.28895        -0.063104      0.301652     -0.947659
O       9.51452      2.00599      0.30011        -0.079255      0.094017     -0.716218
O       9.62153      1.85711     13.60260        -0.343684      0.061992     -0.579436
O       9.52789     13.30996      0.51343        -0.119023     -0.225947     -0.848746
O       9.66393     13.45050     13.52922        -0.595533      0.100248      0.109687
O       9.58358      1.85514      5.00274         0.051054     -0.185357     -0.474619
O       9.67053     13.63310      4.85018        -0.112443     -0.618707      0.275714
O       9.72381      2.15455      9.21273        -0.587801     -0.437138     -1.925066
O       9.75007     13.23287      9.14959        -0.163269      0.284175     -0.650168
O       9.68473      5.51626      0.61454        -0.403999      0.555430     -0.124569
O       9.59476      5.90128     13.62619        -0.194536     -0.493178     -0.723525
O       9.55772      5.89984      4.80840         0.241448     -0.138736     -0.348166
O       9.48835      5.67132      9.26784         0.644526      0.315706     -0.105903
O       9.49819      9.79111      0.58681         0.018581     -0.508988     -0.933989
O       9.66793      9.47858     13.63421        -0.625261      0.538344     -0.727443
O       9.63982      9.53099      4.84474        -0.068012      0.074524     -0.843867
O       9.50481      9.64854      9.29253         0.174428      0.073064     -1.017805
O       3.76919      1.98782      2.74671        -0.162039     -0.400030      0.197028
O       3.80348      1.80524     15.65799        -0.771108      0.951761      0.591515
O       3.88554     13.45733      2.74313        -1.394436     -0.431123      0.383672
O       3.80968     13.47724     15.75969         2.012759     -0.089944     -0.013644
O      15.30488      1.69667      2.60772        -0.546787      0.833219      0.410160
O      15.28040      1.90798     15.85206         0.558560     -0.323579      0.350360
O       0.12211     13.38149      2.46724        -1.069668      0.313618      0.829163
O      15.33960     13.26833     15.61056        -0.510876      0.176917      0.591075
O       3.87201      1.79561      7.10551        -0.360331     -0.158525      0.241056
O       3.84024     13.41522      7.16495         0.099818     -0.029129     -0.102775
O      15.32440      2.01298      6.93588        -1.008685      0.109500      0.659763
O      15.32858     13.41296      7.02385        -0.066968      0.035619      0.727164
O       3.78386      1.83079     11.29057         0.208393      0.397970      0.399766
O       3.76449     13.46894     11.28856         0.530758     -0.110283      0.558714
O      15.27949      1.91784     11.27247        -0.112266      0.033872      1.044586
O      15.30754     13.41441     11.38547         0.239943     -0.323550      0.199242
O       3.89112      5.63380      2.76145        -0.586169      0.514761     -0.168200
O       3.87358      5.69791     15.67794         0.260094      0.417891      0.563326
O       0.02511      5.78536      2.57128         0.861093     -0.094882      0.587564
O       0.04441      5.68413     15.83540        -0.744387      0.401453      0.242665
O       3.83618      5.81562      6.97383         0.296988     -0.122023      0.864343
O       0.03408      5.67470      6.91450        -1.188887      0.240583      0.386563
O       3.79493      5.67674     11.44071        -0.314740      0.576114      0.036424
O      15.34017      5.69059     11.48299        -0.145141      0.301803      0.001491
O       3.88133      9.74045      2.54781        -0.504201     -0.457318      0.705981
O       3.93177      9.48485     15.81051        -0.286317      0.069427     -0.241127
O       0.08458      9.48172      2.59129        -0.387714      0.577232      0.332524
O      15.34768      9.68672     15.57130         0.246630     -0.058992      0.815609
O       3.78044      9.62765      7.19730         1.103806      0.219212      0.209142
O       0.07474      9.47329      7.00326        -1.359006      0.082900      0.871524
O       3.89935      9.61409     11.33079        -1.377925     -0.541156      0.700332
O      15.35508      9.59578     11.44968         1.568730      0.007383      0.330152
O       7.66030      1.89334      2.67806        -0.679182     -0.047707      0.055001
O       7.56574      1.99197     15.69372         0.658011     -0.278028     -0.062460
O       7.53101     13.42969      2.66247         1.802780      0.416619      0.619424
O       7.63990     13.43741     15.72998        -1.065684      0.202243     -0.112863
O       7.69327      1.90131      6.95133        -0.781703      0.063904      0.976307
O       7.75095     13.28256      7.02435        -0.054011      0.330606      0.322449
O       7.62953      1.88455     11.30220         0.762239      0.215172      0.419098
O       7.66912     13.45904     11.30753         0.779437     -0.314589      0.579722
O       7.71744      5.70293      2.76476        -0.723722      0.169640      0.082057
O       7.68563      5.72429     15.75065        -0.426265      0.193378      0.190015
O       7.61636      5.77691      6.89544         0.658773     -0.258131      0.617029
O       7.75626      5.63010     11.43313        -0.858004      0.609030      0.356789
O       7.63651      9.49772      2.75839         0.469786      0.348089      0.004239
O       7.68904      9.58651     15.80117        -1.275149     -0.691753      0.078982
O       7.67644      9.58201      6.96687        -0.507989      0.587838      0.587946
O       7.63776      9.64571     11.35818         0.927036     -0.123969      0.707704
O      11.39635      1.87801      2.51785         0.974124      0.284854      0.303204
O      11.51791      1.90127     15.63230        -1.196617     -0.101587      0.546163
O      11.42852     13.35302      2.56819         1.280856     -0.076733      0.541026
O      11.41445     13.49090     15.63690        -0.083031     -0.458270      0.792776
O      11.48556      1.90265      7.00996         0.741714      0.096222      0.708727
O      11.54626     13.44354      7.08109         0.666841     -0.221507     -0.057977
O      11.45518      1.95267     11.22910         0.101790     -0.387931      1.150276
O      11.54119     13.46399     11.33757         0.034251     -0.389106      0.090429
O      11.50802      5.70609      2.73296         0.756858      0.017005      0.454012
O      11.45988      5.71393     15.79580         0.792954      0.022678      0.480060
O      11.43426      5.82094      6.91642         1.304457      0.052061      0.253315
O      11.52515      5.87506     11.38925        -0.578099     -0.189773      0.302974
O      11.54121      9.76757      2.66621        -0.570151     -0.874914      0.269258
O      11.50090      9.47977     15.68418        -0.241790      0.839797      0.583824
O      11.50757      9.54817      6.94361         0.142839     -0.414968      0.684741
O      11.53638      9.58429     11.29272        -0.738909      0.004014      0.448736
O       1.87880      3.76779      2.84746        -0.513266      0.626702     -0.274022
O       1.80951      3.79195     15.77399         0.865797     -0.106618      0.462714
O       1.84119     15.32756      2.68908         1.143826     -0.156523      0.267605
O       1.91600     15.26660     15.76969        -0.586257      1.374815      0.238599
O      13.46147      3.79711      2.52767        -0.066098     -0.739063      0.627623
O      13.34280      3.77543     15.72349         0.255108      0.878009      0.644555
O      13.34361     15.26588      2.48616         0.145289      0.440120      0.826910
O      13.33466     15.30917     15.72847         0.663034     -0.627290      0.382318
O       2.11596      3.81516      6.94846        -0.695828      0.510164     -0.008518
O       1.86438      0.02411      7.00507        -0.097372     -0.465454      1.068334
O      13.39027      3.95718      6.92973        -0.265227     -1.222397      0.444897
O      13.46279     15.34679      6.81297        -0.117286     -0.312537      1.033213
O       1.80659      3.76132     11.50044         0.670677      0.911816      0.170639
O       1.78202      0.02045     11.31875         0.214069     -0.654577      0.656693
O      13.39874      3.89247     11.32637        -0.358969     -0.340513      0.622686
O      13.43421      0.00103     11.32781        -0.206050      0.030778      0.216428
O       2.07189      7.73152      2.35908         0.428520     -1.274479      1.690244
O       1.86648      7.70975     15.75972         0.458050     -0.559842      0.129284
O      13.48492      7.68705      2.48776        -0.795202      0.305273      0.856759
O      13.39017      7.67134     15.87922         0.421470     -0.146060     -0.394893
O       2.01652      7.66687      7.12118        -0.526017     -0.760364      0.420695
O      13.49189      7.59885      6.93337        -0.139011      0.077186      0.672028
O       1.86442      7.55858     11.51258         0.527855      1.391914     -0.097417
O      13.54606      7.67999     11.52455        -0.247560     -0.288338      0.165865
O       1.92246     11.54962      2.60919         0.454908      0.014118      0.263026
O       1.98756     11.53597     15.53202         0.316641     -1.734301      1.158064
O      13.54681     11.49316      2.65461         0.002941      0.215242      0.504074
O      13.24615     11.49187     15.72020         0.592123     -0.043596      0.418778
O       1.79744     11.48015      6.94015         0.604266      0.509862      0.889305
O      13.44055     11.42616      7.03177         0.220476      0.891761      0.434150
O       1.98118     11.53412     11.20496        -0.311451     -1.515211      0.901933
O      13.40271     11.45321     11.28801         0.023223      1.178008      0.090974
O       5.77236      3.76136      2.69248         0.113601      0.942968      0.427261
O       5.78296      3.85807     15.62758        -0.495995      0.700506      0.670049
O       5.54964      0.07475      2.57321         0.713399     -0.935930      0.846877
O       5.78736      0.12750     15.55682         0.008734     -1.986851      0.780010
O       5.68230      3.81454      7.11076         0.303738     -0.034037     -0.243327
O       5.94476     15.26140      7.04086        -0.687106      0.039623      0.047917
O       5.64424      3.87470     11.25593         0.272278     -1.273222      0.367939
O       5.72062     15.34094     11.41512         0.065277      0.341215     -0.010015
O       5.80814      7.63218      2.55541        -0.586908      0.701633      0.733536
O       5.84500      7.58466     15.83130        -0.296100      1.420427     -0.240934
O       5.79202      7.72869      6.88631        -0.621983      0.124547      0.926430
O       5.73729      7.60657     11.31937         0.206595      0.845070      0.732872
O       5.84729     11.54931      2.66148        -0.416418     -0.683752     -0.172911
O       5.72188     11.48919     15.62128        -0.075325      0.257592      0.084369
O       5.76926     11.49594      7.23117        -0.307373      0.088562      0.311613
O       5.77558     11.48142     11.38520        -0.251240      0.599419      0.375360
O       9.56403      3.80337      2.70283        -0.022190     -0.697489      0.527420
O       9.54531      3.84965     15.58314        -0.090018     -0.447261      0.073537
O       9.49557     15.34876      2.41135         0.065245      0.025940      0.500657
O       9.52731     15.35106     15.71902        -0.335514     -0.087101      0.170386
O       9.55978      3.82257      6.94146         0.204121      1.441461      0.414446
O       9.63942     15.35921      7.11041        -0.110270     -1.106913      0.475839
O       9.67522      3.81638     11.28355        -0.159630      0.909162      1.202217
O       9.63538     15.30767     11.13552        -0.081588      1.017094      0.517763
O       9.68930      7.62559      2.50633        -0.133708      1.175125      0.431927
O       9.68334      7.66880     15.73359        -1.001269     -0.293361      1.066635
O       9.52333      7.69658      7.07940         0.219710     -0.236210      0.286816
O       9.60823      7.75843     11.34790        -0.430177     -0.834690      0.316404
O       9.58332     11.51928      2.70729        -0.686275     -1.117613      0.654194
O       9.40815     11.47189     15.62034         0.746625      0.920685      0.429712
O       9.64321     11.46207      6.96160         0.254548      0.253400      0.015600
O       9.61733     11.62153     11.41007        -0.254728     -1.779238      0.471792
