  # total energy = -7881.79790071 
CRSYTAL
PRIMVEC
    15.3600000000000000    0.0000000000000000    0.0000000000000000
     0.0000000000000000   15.3600000000000000    0.0000000000000000
     0.0000000000000000    0.0000000000000000    17.440000000000000
PRESSURE
0.039158 0.701321 -1.47547 -0.003063 -0.250004 0.030168
PRIMCOORD
320 1
Pb       3.92613      3.80978      4.40173        -0.451563      0.183452     -0.765877
Pb       3.90494      3.81169      0.02543        -0.063594     -0.023773     -0.317712
Pb       3.76833      0.02611      4.34223         0.326928     -0.122200     -0.450690
Pb       3.75831     15.29428     17.35383        -0.303638      0.195408     -0.068478
Pb       0.08297      3.77779      4.37231        -0.652924      0.222507     -0.742438
Pb       0.07134      3.90297      0.00909        -0.297264     -0.153875     -0.195230
Pb       0.10973      0.03714      4.36346        -0.590369     -0.143377     -0.557553
Pb      15.23513      0.04654     17.37688         0.067018     -0.347397     -0.270963
Pb       3.75106      3.77917      8.71729        -0.234431      0.293943     -0.383667
Pb       3.79600     15.33037      8.62687        -0.000681     -0.092420     -0.176624
Pb      15.10697      3.96609      8.63950         0.293256      0.252347      0.026399
Pb      15.21150     15.30566      8.73584         0.445224     -0.224005     -0.088917
Pb       3.88510      3.63746     13.08415        -0.295018      0.699738     -0.316821
Pb       3.76619      0.01240     12.93201        -0.278412     -0.427540      0.189926
Pb       0.03134      3.78481     13.03194         0.220187     -0.170229      0.152685
Pb      15.29349     15.22987     13.07130         0.066317      0.071127     -0.375342
Pb       3.84114      7.67153      4.32321        -0.006664      0.073717      0.021872
Pb       3.81366      7.61138      0.01282         0.012589      0.238072     -0.473763
Pb       0.14968      7.80679      4.31469        -0.489368     -0.370648     -0.371373
Pb      15.30062      7.69986      0.04009        -0.589710      0.042130     -0.226241
Pb       3.78359      7.71780      8.62359         0.077105      0.008018      0.072739
Pb      15.31699      7.62280      8.63885        -0.166574     -0.158650     -0.152155
Pb       3.87971      7.55633     13.03786        -0.335634      0.406758     -0.117863
Pb      15.32994      7.64716     13.09804         0.118127      0.216340     -0.188197
Pb       3.81187     11.56813      4.26788        -0.036328     -0.324610      0.261652
Pb       3.95344     11.61496     17.41658        -0.921651     -0.561651     -0.153590
Pb       0.10684     11.55444      4.33118        -0.682688     -0.230181      0.065647
Pb      15.26026     11.52091     17.35523        -0.177174      0.091308     -0.207892
Pb       3.87178     11.49905      8.64137         0.014667     -0.390079      0.041403
Pb      15.34734     11.46580      8.72806        -0.351751     -0.090588     -0.487788
Pb       3.92737     11.40494     13.08581        -0.395088     -0.152369     -0.257427
Pb       0.19509     11.52742     13.02788        -1.267761     -0.192683      0.118629
Pb       7.68669      3.78092      4.25682         0.097543      0.257279     -0.005801
Pb       7.69863      3.84308      0.04144         0.081128     -0.236466     -0.311775
Pb       7.67486     15.34365      4.42302        -0.224375     -0.245735     -0.313714
Pb       7.51671      0.04502     17.32253         0.388257      0.018488      0.344414
Pb       7.52533      3.90165      8.74109         0.416010     -0.516519     -0.358048
Pb       7.66437     15.33034      8.78518         0.163662     -0.522403     -0.417489
Pb       7.87346      3.91090     13.02612        -0.304193     -0.204847     -0.014807
Pb       7.69507      0.10969     12.98991         0.292979     -0.212079     -0.220945
Pb       7.73696      7.55388      4.33248        -0.115438      0.168211     -0.036615
Pb       7.58497      7.76333      0.01320         0.031039      0.242861     -0.469299
Pb       7.73403      7.62209      8.71609        -0.260473      0.450152     -0.567328
Pb       7.69268      7.72933     13.07921        -0.270776     -0.019923     -0.188851
Pb       7.64167     11.46518      4.35127        -0.030834      0.005974     -0.399870
Pb       7.68490     11.59320     17.32690         0.231092     -0.618925     -0.092030
Pb       7.61973     11.59930      8.62873         0.510869     -0.105279     -0.079956
Pb       7.79336     11.56147     12.95112        -0.319306     -0.369839      0.378206
Pb      11.45272      3.76219      4.30314         0.596201     -0.112037     -0.078811
Pb      11.70982      3.90452      0.15333        -0.637960     -0.451520     -0.830553
Pb      11.61470     15.28569      4.38078         0.125388     -0.127913     -0.750689
Pb      11.24172     15.25514      0.04087         0.801641      0.143374     -0.194648
Pb      11.44955      3.86914      8.65814         0.185746      0.201948     -0.147418
Pb      11.48019      0.05030      8.76767        -0.219515     -0.621176     -0.610753
Pb      11.56184      3.72196     13.02381        -0.341259      0.396708      0.164134
Pb      11.50131     15.29887     13.08769        -0.096192     -0.084207     -0.176812
Pb      11.57051      7.54241      4.37418        -0.386386     -0.015806     -0.294073
Pb      11.46971      7.71143     17.42140         0.412668      0.043778     -0.459694
Pb      11.59599      7.72315      8.68115        -0.259504     -0.267220      0.090980
Pb      11.34348      7.58639     13.15267         0.550011      0.236280     -0.619251
Pb      11.54261     11.43270      4.27222         0.070159      0.671133     -0.456867
Pb      11.39841     11.43885     17.36011         0.428629      0.194648     -0.055339
Pb      11.53365     11.42043      8.62433        -0.276753      0.386507      0.491240
Pb      11.56476     11.48727     13.04578         0.358510     -0.349144     -0.447931
Ti       1.90666      1.94854      2.22526        -0.129187     -0.121809      0.234077
Ti       1.91677      1.95744     15.34655        -0.862609     -0.835675      0.425451
Ti       1.85612     13.45456      2.27457         0.701740     -0.379736      1.677548
Ti       1.81700     13.39678     15.33487        -0.291038     -0.341329      1.648968
Ti      13.42823      1.84957      2.32453         0.213945      0.195305      0.969372
Ti      13.38810      1.94098     15.35179         0.259924     -0.900698     -0.066930
Ti      13.50165     13.36669      2.31538        -1.405881      0.228252     -1.542188
Ti      13.28638     13.44473     15.41188         1.091026     -0.192504     -0.655419
Ti       1.82374      1.87597      6.72855         0.160533      0.148739      2.011515
Ti       1.93076     13.40839      6.75472        -0.604729     -0.487943     -0.791632
Ti      13.41428      1.87848      6.65500        -0.850503      0.646305     -1.792730
Ti      13.42824     13.47123      6.64785        -0.197758     -1.624313     -0.922350
Ti       1.89568      1.89026     10.88726        -0.761816     -0.256274     -0.056842
Ti       1.93308     13.37266     10.90724        -0.848628      0.425937      0.380627
Ti      13.43838      1.88233     11.02500         0.419467      0.141795      0.883980
Ti      13.36836     13.47374     10.98287         0.216043     -1.570301      0.637556
Ti       1.93487      5.76849      2.36204        -0.778496     -0.471758      1.717962
Ti       1.88477      5.73599     15.38649         0.004584     -0.253382     -1.076997
Ti      13.41019      5.74605      2.29395         1.364658     -1.113781      0.467395
Ti      13.43817      5.69643     15.34874        -0.459767      1.003775     -0.068418
Ti       1.88629      5.64700      6.53377        -0.271896      1.298668      0.087789
Ti      13.31724      5.78879      6.59001         0.767856      0.058428     -0.588595
Ti       1.93135      5.69776     11.05266        -0.641677      0.024723     -0.211411
Ti      13.40815      5.74011     11.25271        -0.779444      0.249768     -2.671026
Ti       1.87971      9.61877      2.26296        -0.507298     -0.238493      1.594586
Ti       1.80766      9.48802     15.45601        -0.230885      1.697355     -0.155982
Ti      13.28960      9.46574      2.32261         1.586114      1.343917     -0.749385
Ti      13.35520      9.52029     15.32060         0.586377      1.074553     -0.105877
Ti       1.83117      9.54048      6.70741        -0.182678      0.388645     -0.337443
Ti      13.30809      9.62331      6.50572         0.705143      0.146519      1.125857
Ti       1.77869      9.51556     11.00790         0.727065      0.072876     -0.300158
Ti      13.35412      9.50335     11.04127        -0.778920      1.201881      1.953840
Ti       5.75664      1.88451      2.30388        -0.892545     -0.632068     -0.710704
Ti       5.70201      1.95628     15.34852         0.621371      0.199294      0.747156
Ti       5.72322     13.35746      2.26643         0.149199      0.319783      0.845095
Ti       5.70712     13.49285     15.27448        -0.435749     -0.477322      0.860156
Ti       5.74476      1.84277      6.68021        -0.169358      0.125345      0.070777
Ti       5.78631     13.37515      6.59664         0.025573      0.405123      0.925237
Ti       5.73670      1.90759     10.97009         0.809656     -0.437351      0.443328
Ti       5.70816     13.43209     11.08094         0.586238     -0.621113     -0.144300
Ti       5.73904      5.75247      2.28486         0.112920     -0.229109      0.440097
Ti       5.77233      5.77416     15.38105        -0.471038      0.076348      0.422932
Ti       5.72273      5.75211      6.65650         0.014005      0.607878      0.030656
Ti       5.65098      5.68271     10.96086         0.802204      0.728000      0.298933
Ti       5.67926      9.54120      2.31708         0.082351      1.136651      0.356619
Ti       5.61553      9.65722     15.38941         0.931851     -0.729808     -0.912637
Ti       5.75484      9.58823      6.58296        -0.364049     -0.513077      1.497837
Ti       5.68035      9.59101     11.04055        -0.276861     -0.043457     -0.226972
Ti       9.55102      1.81197      2.37802         0.768947      0.201124     -0.949669
Ti       9.59400      1.90449     15.50163         0.204208      0.655701     -1.178571
Ti       9.50078     13.40729      2.31675         0.935643     -0.854350     -1.169899
Ti       9.48155     13.43937     15.30073         0.736864     -0.146158     -0.344599
Ti       9.50739      1.86015      6.70016         1.016833      0.219327     -0.616923
Ti       9.67052     13.38949      6.63527        -0.483132     -0.659355      1.469755
Ti       9.65059      1.90426     10.94693        -1.019892     -0.213269     -0.280023
Ti       9.53758     13.40570     11.02339         1.133566     -0.199687     -0.817786
Ti       9.62712      5.72881      2.23406        -0.064240     -0.171384     -0.061145
Ti       9.53023      5.71535     15.49873         0.835636     -0.952780     -0.244234
Ti       9.57838      5.71761      6.64204        -0.083627      0.274334     -0.008099
Ti       9.51845      5.76281     11.04624         1.491534      0.520952      0.785181
Ti       9.48541      9.54800      2.37964        -0.209744      0.161557     -1.498097
Ti       9.53253      9.45992     15.30831        -0.757331      1.450313      0.449119
Ti       9.50890      9.54495      6.56646         0.619121      0.443673     -0.378748
Ti       9.50664      9.52603     10.98812         1.086912      1.077296      0.779800
O       1.97134      1.92518      0.43611        -0.154637      0.116358      0.945652
O       1.93309      2.02607     13.57486         0.308687     -0.311511     -0.028042
O       1.75208     13.56703      0.60373         0.542677     -0.297243     -1.804663
O       1.85948     13.25231     13.59531         0.119901      0.616741     -0.753625
O      13.50890      1.81052      0.59720        -0.256709      0.427277     -1.307319
O      13.31528      1.91732     13.53999         0.044551      0.198847      1.030712
O      13.33686     13.45689      0.46547         0.375123      0.019154      0.910282
O      13.44002     13.42333     13.59359        -0.178255      0.352818      0.563980
O       1.87637      1.82962      5.01806         0.141460      0.382673     -1.794383
O       1.86918     13.20563      4.95874         0.115927      0.866931      0.267301
O      13.42542      1.93451      4.79782        -0.042637     -0.267526      1.955982
O      13.37982     13.32412      4.81548        -0.033669      0.435591      1.004133
O       1.94922      1.86073      9.06263        -0.247290      0.086186      1.702896
O       1.87306     13.43514      9.13263         0.325366     -0.037199     -0.064500
O      13.46762      1.84504      9.25646        -0.418466      0.036008     -0.113131
O      13.42367     13.49422      9.23606         0.043521      0.268453     -0.756122
O       1.87057      5.65674      0.64196         0.117001      0.237813     -1.365553
O       1.92654      5.71351     13.58041         0.002769      0.073960      0.806479
O      13.57670      5.80091      0.50254        -0.656883     -0.447240      0.070296
O      13.34697      5.69588     13.54650         0.380559     -0.147306      0.154111
O       2.01442      5.66329      4.73245        -0.296100      0.064904      1.017065
O      13.20117      5.79135      4.80419         0.487630     -0.220007      0.716482
O       1.89187      5.72367      9.30292         0.128127      0.035589     -0.417427
O      13.30198      5.83107      9.30767         0.535516     -0.388831      1.155119
O       1.80801      9.57089      0.56743         0.142206     -0.188699     -1.912238
O       1.77514      9.54332     13.68577         0.097850     -0.152832     -0.249347
O      13.29453      9.50457      0.52406        -0.032056     -0.211851      0.343901
O      13.36516      9.67082     13.55980        -0.018031     -0.551611      0.375209
O       1.78408      9.63180      4.88711         0.160031     -0.237343      1.266471
O      13.39180      9.61041      4.73184        -0.267293     -0.172314      0.147385
O       1.83264      9.61907      9.21908        -0.099248     -0.474756      0.479810
O      13.21480      9.48383      9.31390         0.440064     -0.171342     -0.815403
O       5.71326      1.94419      0.51430         0.107410     -0.202666      0.450070
O       5.70437      1.74232     13.59323        -0.050484      0.702070     -0.382396
O       5.68379     13.31998      0.50453         0.342798      0.136983     -0.447939
O       5.75006     13.44625     13.53333        -0.386123      0.218903     -0.032369
O       5.82553      1.80558      4.89967        -0.527892      0.253997      0.393716
O       5.77224     13.41831      4.88446        -0.108445     -0.054033     -1.299569
O       5.76881      1.92792      9.22249        -0.320191      0.107889     -0.565114
O       5.76565     13.30202      9.33518         0.138077      0.242472     -1.170058
O       5.67423      5.82050      0.52610        -0.168494     -0.131912      0.324575
O       5.73708      5.68310     13.60672         0.280225      0.217929      0.515027
O       5.73757      5.89691      4.88247        -0.424565     -0.626783      0.187339
O       5.74257      5.50702      9.15164        -0.170631      0.723390      0.939682
O       5.65478      9.48474      0.55200         0.209996      0.337544     -0.544179
O       5.62349      9.72418     13.58375         0.003106     -0.622240      0.410569
O       5.67328      9.67927      4.86904         0.065138     -0.467148     -0.909620
O       5.63596      9.60791      9.28585         0.352510      0.391336      0.019484
O       9.54716      1.77116      0.56359        -0.218517      0.004593      1.247805
O       9.64941      1.78135     13.65295        -0.185518      0.658069      0.666590
O       9.51682     13.39228      0.42651        -0.109347      0.295225      1.301418
O       9.57711     13.58149     13.51710        -0.395630     -0.297414      0.615999
O       9.56774      1.92118      4.87836        -0.317072     -0.259102      0.567993
O       9.78147     13.34891      4.90476        -0.284181      0.099471     -0.909689
O       9.59433      2.01070      9.14391         0.264878     -0.550131      0.827393
O       9.51421     13.40409      9.25006        -0.323550      0.028244     -0.371233
O       9.59986      5.58630      0.46615         0.154931      0.791754      0.295590
O       9.48881      5.72243     13.67650        -0.308853     -0.145268      0.283588
O       9.78446      5.80608      4.90057        -0.642862     -0.059805     -0.186136
O       9.50257      5.76948      9.32666        -0.177908      0.058309     -2.097836
O       9.35758      9.45955      0.49095         0.656843      0.272422      1.355777
O       9.45582      9.53379     13.53855         0.250982     -0.191830      0.688706
O       9.50245      9.47073      4.73405         0.389831      0.429889      0.656500
O       9.48360      9.41419      9.23153        -0.149269      0.308946      0.202010
O       3.83368      1.96443      2.71238        -0.075183     -0.077566      0.382949
O       3.81870      1.98293     15.76533         0.121404     -0.040990     -0.067173
O       3.82028     13.26093      2.64259        -0.128073      0.268825      0.056298
O       3.72794     13.31683     15.91064         1.182029      0.683770     -0.863046
O       0.00837      1.92078      2.76922         0.930727     -0.276685     -0.129901
O       0.04532      1.82645     15.68260        -0.824077      0.320148      0.105202
O       0.07266     13.55423      2.70739        -1.476791     -0.386792      0.464304
O      15.29342     13.53400     15.84877        -0.069902     -0.642749     -0.477556
O       3.75319      1.98196      7.13187         1.050399     -0.182868     -0.467812
O       3.84587     13.38787      6.96309        -0.514638     -0.004374      0.567089
O      15.24390      1.81792      7.11934         0.126212      0.271520     -0.221214
O      15.28065     13.48432      7.13839        -0.175107      0.077543     -0.239220
O       3.79478      1.78154     11.44292         0.367349      0.183012     -0.617383
O       3.83543     13.52788     11.35643        -1.018066     -0.200353      0.136052
O      15.33607      1.96553     11.53563         0.452913     -0.168392     -0.898210
O       0.01401     13.45321     11.33316        -0.206823     -0.553467      0.257306
O       3.85212      5.65556      2.81693         0.642656     -0.087147     -0.451359
O       3.76791      5.80229     15.82648         0.292002     -0.207272     -0.035329
O      15.34533      5.75660      2.76966         0.324175      0.058273     -0.027572
O      15.32842      5.78472     15.73995        -0.293774      0.118027      0.141956
O       3.71788      5.82267      7.03883         0.737150     -0.729340     -0.168492
O      15.25290      5.78556      6.99535        -0.088048     -0.029170      0.003365
O       3.82881      5.70714     11.56929         0.464663      0.142318     -0.710088
O       0.05552      5.51771     11.40857        -0.994110      0.603759      0.305122
O       3.78359      9.71526      2.74139         0.340089     -0.066434     -0.185017
O       3.73084      9.65147     15.73945         0.263007     -0.392991      0.325929
O      15.30102      9.47593      2.69759         0.211365     -0.582600     -0.006603
O      15.19745      9.63536     15.78742         0.889243     -0.382501      0.311815
O       3.78566      9.58916      7.13557        -0.745778     -0.001417     -0.476919
O      15.24784      9.53888      7.21297         0.112869      0.015682     -0.747555
O       3.77204      9.47800     11.43965        -0.492158      0.295479      0.182852
O      15.23766      9.60443     11.49088         0.951348     -0.356537     -0.467102
O       7.59178      1.87782      2.80997         1.378633     -0.181763     -0.169600
O       7.67925      1.98748     15.80755        -0.830277     -0.110914      0.003404
O       7.65254     13.41054      2.74689         0.090281      0.028826     -0.078624
O       7.54023     13.50424     15.71426         0.708501     -0.230766      0.016581
O       7.63470      1.77443      7.04525        -0.149725      0.295275      0.176819
O       7.66494     13.45182      6.98821        -0.097367     -0.495969      0.312551
O       7.72483      1.97338     11.24853        -0.555696      0.255656      0.595733
O       7.72077     13.35717     11.43440        -1.545886     -0.102208      0.164065
O       7.69437      5.75816      2.72982        -0.724153      0.083958     -0.185315
O       7.63797      5.66715     16.00009        -0.576886      0.327224     -0.887948
O       7.61327      5.87054      6.81896         0.836132     -0.171726      0.883968
O       7.67714      5.68185     11.47065        -1.340407      0.096928     -0.193820
O       7.61719      9.67054      2.78460         0.120551     -1.302955     -0.213569
O       7.58617      9.48726     15.70728         0.324891      0.535486      0.225216
O       7.65654      9.58355      6.89834        -0.537776     -0.154007      0.371140
O       7.60494      9.62400     11.54125         0.182062     -0.094817     -0.654342
O      11.47395      1.89265      2.71128        -0.884017     -0.442345     -0.155331
O      11.45215      1.96729     15.99307         1.244388     -0.159050     -0.550942
O      11.55420     13.42114      2.60056        -0.618757      0.001202      0.489886
O      11.39957     13.43356     15.57261        -0.260300      0.582646      0.741324
O      11.49580      1.91971      7.09242        -0.448020     -0.173467      0.092726
O      11.51358     13.26335      7.16442         0.177565      0.954166     -0.416552
O      11.49209      1.84332     11.49208         0.043923     -0.167295     -0.755115
O      11.48449     13.61225     11.23069         0.295262      0.021399      0.796216
O      11.54773      5.69533      2.68055        -0.816822      0.148627     -0.404098
O      11.45668      5.71123     15.76311         0.859355      0.252340      0.340080
O      11.48355      5.76121      7.00789        -0.907814     -0.275796      0.659187
O      11.45256      5.84172     11.45572         0.477326     -0.111320      0.426550
O      11.44534      9.66021      2.60229        -0.476919     -0.468688      0.231605
O      11.50043      9.52182     15.77396        -1.847466     -0.134894      0.104970
O      11.42255      9.70076      7.09347         0.732310     -0.756741     -0.927905
O      11.44665      9.51787     11.59873        -0.099060     -0.420125     -0.608944
O       1.84592      3.80529      2.73803         0.501883     -0.366777     -0.046059
O       1.70110      3.85135     15.73709         1.080751     -0.012915      0.199157
O       2.00547      0.00630      2.80684        -0.076925      0.303442     -0.247574
O       1.98384     15.28036     15.79847         0.076283      0.829642     -0.598453
O      13.38316      3.73923      2.66589         0.155665      1.237835     -0.007593
O      13.53670      3.84933     15.78215        -0.502536     -0.484343      0.242621
O      13.52984     15.34364      2.70999        -0.512362     -0.574056      0.495262
O      13.49468      0.07621     15.69252        -1.022949     -0.312896      0.035949
O       1.70997      3.86186      6.96662         0.399494     -0.504597      0.228375
O       1.88521      0.00144      6.99161         0.247186     -0.863587      0.352485
O      13.32587      3.85325      7.02017         0.363750     -0.301385      0.195997
O      13.26936     15.31964      6.93424         0.076786      0.289020      0.358543
O       2.02302      3.75190     11.25432         0.177728     -0.602705      0.352637
O       1.80282     15.27420     11.33843         0.538608      1.072571      0.091643
O      13.35613      3.81880     11.36547        -0.255545     -0.678055      0.341405
O      13.52313     15.35687     11.43228        -0.251655      0.331254      0.000735
O       2.12091      7.68715      2.72587        -0.863213     -0.458144     -0.097463
O       1.78312      7.63968     15.87527         0.375473      0.065473     -0.039405
O      13.42092      7.58522      2.59953        -0.569656      0.720962      0.485023
O      13.39147      7.65953     15.78007        -0.064450     -0.721136     -0.153271
O       1.76605      7.61975      7.02241         0.459389      0.562285     -0.143289
O      13.25967      7.73235      6.91724         0.177237     -0.426586      0.166104
O       1.77216      7.60956     11.45130         0.235731      0.443234      0.013436
O      13.44753      7.59796     11.54000         0.332424      0.434512      0.064384
O       1.66354     11.42981      2.68042         1.069222      1.580179     -0.300642
O       1.75899     11.47910     15.83543         0.120329      0.246975     -0.015134
O      13.51353     11.45702      2.53093        -0.102001      0.548346      0.529330
O      13.24068     11.54208     15.71212         0.420209     -0.049822      0.473603
O       1.71172     11.52939      7.09288         0.590638     -0.789509      0.224188
O      13.40197     11.44583      7.01624         0.297646      0.596921      0.117892
O       1.82598     11.44136     11.34015         0.620016      0.354662     -0.052314
O      13.22994     11.47668     11.37395         0.478144      0.715444     -0.246107
O       5.81973      3.79096      2.56928        -0.204593      0.821011      0.729586
O       5.65246      3.87032     15.82920         0.290359     -0.161536     -0.315848
O       5.72910     15.26785      2.62701        -0.225111      0.458895      0.271394
O       5.77660      0.07445     15.79981        -0.947653     -0.890827     -0.354923
O       5.82252      3.82624      7.04677        -0.458198     -0.131750     -0.379117
O       5.70553     15.28550      7.06505        -0.275003      0.793457      0.189705
O       5.66323      3.79767     11.36069         0.093970     -0.355674      0.126558
O       5.84267     15.31142     11.29974        -0.101685      1.325042      0.386994
O       5.62599      7.70948      2.67279         0.327818     -1.217164      0.277323
O       5.73240      7.70713     15.76038        -0.452070     -0.741368     -0.046106
O       5.71944      7.71911      7.20046        -0.183675     -0.726562     -0.483953
O       5.71847      7.63573     11.20146         0.195340     -0.797574      0.642198
O       5.84913     11.45036      2.73608        -0.532036      0.880596     -0.124447
O       5.73911     11.53157     15.67266        -0.187301      0.612693      0.503023
O       5.70243     11.45807      7.02710         0.243310      0.510214      0.216867
O       5.61424     11.54133     11.42519         0.302005     -0.760664      0.317505
O       9.56794      3.88391      2.65122        -0.267977     -1.677735      0.483503
O       9.61371      3.83007     15.92587        -0.484245     -0.332658     -0.367714
O       9.53844     15.25440      2.81856         0.162053      1.102980     -0.321927
O       9.54452      0.01165     15.74648        -0.225612     -0.781365      0.487580
O       9.50136      3.79736      6.96137         0.022538      0.674018      0.351073
O       9.53857     15.26048      7.05713         0.590705      0.992503      0.138107
O       9.71953      3.91915     11.37195        -0.446309     -1.944478      0.405778
O       9.43186     15.31014     11.27623         0.450354      1.913180      0.157998
O       9.58299      7.58323      2.68586         0.030685      0.864365     -0.127768
O       9.44128      7.63160     15.68530         0.518658     -0.115459      0.417970
O       9.63800      7.72994      7.05342        -0.450353     -1.249563     -0.033626
O       9.58466      7.70790     11.48866        -0.930574     -0.741616      0.105918
O       9.49595     11.49014      2.55864         0.346187      0.126529      0.539685
O       9.51471     11.49661     15.67442        -0.216618      0.084448      0.085254
O       9.56342     11.44371      7.07287        -0.503763      0.470607     -0.160133
O       9.69000     11.49860     11.37854        -0.499031     -0.513475      0.200471
