  # total energy = -7878.79194401 
CRSYTAL
PRIMVEC
    15.3600000000000000    0.0000000000000000    0.0000000000000000
     0.0000000000000000   15.3600000000000000    0.0000000000000000
     0.0000000000000000    0.0000000000000000    17.440000000000000
PRESSURE
0.627412 0.082065 -6.5273 0.028217 0.095982 -0.039601
PRIMCOORD
320 1
Pb       3.80343      3.83962      4.43278        -0.084269     -0.421208     -0.432986
Pb       3.95909      3.74868     17.36972        -0.311421      0.531389      0.207536
Pb       3.78325     15.30108      4.39966        -0.008290      0.578021     -0.390128
Pb       3.87408      0.01721     17.39001        -0.071971     -0.263399      0.049737
Pb       0.00273      3.80718      4.45330         0.264810     -0.218377     -0.695053
Pb       0.16326      3.86015      0.07567        -0.478976      0.166465     -0.036357
Pb       0.06780     15.28585      4.33791        -0.116180     -0.247111     -0.403607
Pb      15.09358     15.27158      0.02671         0.158130      0.116559      0.304492
Pb       3.72656      3.96486      8.59299         0.235703     -0.168847      0.492515
Pb       3.83365     15.35396      8.84375        -0.076419     -0.227914     -0.250986
Pb      15.04247      3.96561      8.64425         0.796381     -0.148804      0.074695
Pb      15.24485      0.18251      8.73676         0.174366     -0.569344     -0.165778
Pb       3.86630      3.74765     12.93136        -0.347677     -0.012006      0.216372
Pb       3.71465     15.22665     12.91804         0.415449      0.637445      0.115137
Pb       0.00871      3.65699     13.14510        -0.031779      0.639931     -0.372474
Pb       0.03611      0.00129     12.93704        -0.166304      0.118073      0.018771
Pb       3.93007      7.66610      4.27210        -0.560881     -0.194593      0.165717
Pb       3.66438      7.61336      0.03080         0.409728     -0.067702     -0.226478
Pb       0.22569      7.71621      4.31854        -0.515103      0.325605     -0.082976
Pb      15.26651      7.76907     17.35322         0.384761     -0.274265      0.107209
Pb       3.96576      7.64395      8.74711        -0.648747     -0.190576     -0.851098
Pb      15.33933      7.63571      8.70109         0.479892      0.138087     -0.150837
Pb       3.79895      7.61216     13.06168         0.098245     -0.100755     -0.110565
Pb       0.08344      7.67678     13.14830        -0.479193     -0.229365     -0.157873
Pb       3.61582     11.49611      4.31649         0.777439     -0.089639     -0.048509
Pb       4.01827     11.31500     17.32212        -0.462143      0.356992      0.100231
Pb       0.15348     11.67225      4.18660        -1.024145     -0.330714      0.578000
Pb      15.22966     11.48222     17.30258         0.097359     -0.356889      0.213589
Pb       3.78322     11.59934      8.72709         0.125933     -0.279203      0.312513
Pb      15.32533     11.34551      8.70502        -0.301655      0.282754     -0.030509
Pb       3.96053     11.47286     12.96935        -0.498717     -0.045731      0.122036
Pb       0.16132     11.48282     13.17040        -0.375775     -0.303230     -0.756946
Pb       7.71308      3.70510      4.42663        -0.287734     -0.423204     -0.207230
Pb       7.65759      3.88323     17.33430        -0.248495      0.179654      0.326550
Pb       7.70458      0.01200      4.38337         0.284261     -0.017943     -0.298809
Pb       7.39095     15.31659     17.34252         0.852225      0.145096      0.392599
Pb       7.65246      3.81919      8.70507         0.137024      0.583957     -0.278554
Pb       7.67070     15.26052      8.58556         0.244038     -0.223634      0.545512
Pb       7.84058      4.00718     13.28359        -0.333221     -0.196749     -0.956534
Pb       7.65638      0.17567     13.03355        -0.061680     -0.301707     -0.675354
Pb       7.56374      7.47653      4.26443         0.422489      0.891419      0.611541
Pb       7.59729      7.65627      0.00207        -0.171342      0.282138     -0.094070
Pb       7.59603      7.87867      8.64753         0.236663     -0.996038     -0.204352
Pb       7.59802      7.61184     12.96420         0.105550      0.241111      0.288998
Pb       7.71301     11.37443      4.39302        -0.294775      0.459865      0.093852
Pb       7.51999     11.64763     17.34043         0.621114     -0.935205      0.231629
Pb       7.68359     11.49191      8.69515         0.464243      0.219768     -0.321324
Pb       7.86798     11.62848     13.05978        -0.345180     -0.141745     -0.318390
Pb      11.56404      3.75526      4.36942        -0.284562     -0.331405     -0.146338
Pb      11.58586      3.80955      0.07667        -0.145155      0.149824     -0.334131
Pb      11.59196     15.31246      4.29212        -0.642939      0.076066     -0.208848
Pb      11.36856     15.26200     17.28278         0.596322      0.107770      0.489887
Pb      11.54775      4.07532      8.70727        -0.565266     -0.321138     -0.593328
Pb      11.45430     15.28360      8.64973         0.182135     -0.045971      0.144085
Pb      11.55766      3.68163     13.32258         0.332892      0.414935     -0.425042
Pb      11.44260     15.33522     13.05884        -0.157372     -0.423008     -0.089958
Pb      11.56383      7.68422      4.20699         0.002225      0.490538      0.184086
Pb      11.42309      7.58295      0.03888         0.182614     -0.038233     -0.007884
Pb      11.55913      7.69344      8.67040        -0.289327     -0.020974     -0.348386
Pb      11.38278      7.69154     13.04540         0.575550      0.160135      0.281144
Pb      11.57154     11.37461      4.39709         0.196389     -0.037373     -0.253778
Pb      11.33696     11.48615     17.35484         0.067216      0.105715      0.122563
Pb      11.51561     11.52606      8.86541         0.063851     -0.080978     -1.054466
Pb      11.46147     11.42839     12.97863         0.596580      0.628899      0.157114
Ti       1.84855      1.87597      2.36093         0.297169      0.255157      0.129882
Ti       1.76485      1.79718     15.51012         0.577764      0.869827     -2.190056
Ti       2.01063     13.44104      2.11722        -1.197189      0.025795      0.772883
Ti       1.90141     13.40487     15.42718         0.444590     -0.664175     -0.527423
Ti      13.34347      1.89052      2.22046         0.627942     -0.513124     -0.502329
Ti      13.39534      1.86699     15.43835        -1.082460      0.322360     -0.017097
Ti      13.32861     13.42130      2.26017         0.771392     -0.328593     -0.695834
Ti      13.43254     13.33856     15.34383        -1.954567      0.248975     -1.044395
Ti       1.83840      1.91236      6.76915        -0.036906     -0.179241     -1.547477
Ti       1.88766     13.46024      6.82048        -1.021182      0.396706     -0.951347
Ti      13.28450      1.82899      6.62398         0.739684      0.856752     -0.727759
Ti      13.49485     13.39381      6.69257         0.097287     -0.834882     -0.999763
Ti       1.84180      1.90342     10.97804         0.185583      0.077039     -0.837664
Ti       1.84416     13.36473     10.98505         0.238300     -0.137918     -1.576016
Ti      13.24758      1.96267     11.00820         2.096208      0.452072     -1.535144
Ti      13.41319     13.49721     11.01209         0.059722     -1.195829     -1.851546
Ti       1.96592      5.74439      2.32526        -0.318844     -0.767658     -0.839727
Ti       1.95253      5.68773     15.43248        -0.276650      0.386509     -1.176991
Ti      13.46372      5.72233      2.36473         0.799930      0.443907     -0.852119
Ti      13.44751      5.73015     15.54449         0.020249     -0.457148     -2.039128
Ti       1.90215      5.74675      6.70317         0.096646      1.309052     -0.425262
Ti      13.40747      5.76230      6.46728         0.199281     -0.020695     -0.716410
Ti       1.83346      5.67594     11.07970        -0.540618      0.018997     -1.404662
Ti      13.31345      5.82165     11.16760         1.586002     -0.392185     -0.376433
Ti       1.87914      9.59201      2.15695         0.322974     -0.157931     -0.677705
Ti       1.99480      9.58983     15.36110        -0.702891     -0.530320     -0.586780
Ti      13.42883      9.64488      2.24829        -0.060559     -0.405328      0.185488
Ti      13.36453      9.56472     15.33013         0.634394      0.162796     -1.424142
Ti       1.89546      9.61456      6.74151        -0.189507     -1.564516     -1.367749
Ti      13.40967      9.50059      6.69727         0.313889      0.810462     -1.947182
Ti       1.91350      9.50265     11.08132        -0.276101      0.437191     -1.703557
Ti      13.43608      9.62274     11.10699         0.577000     -0.019286     -0.958565
Ti       5.70326      1.97601      2.33470        -0.478333     -0.342658     -0.719581
Ti       5.64557      1.94787     15.26159         0.346766      0.089652     -0.901450
Ti       5.76718     13.49071      2.37403        -0.010066      0.078546     -0.985004
Ti       5.69057     13.44272     15.27598         0.845346     -0.021777     -1.267577
Ti       5.71373      1.83912      6.78267         0.607383      0.346194     -1.768673
Ti       5.76013     13.36908      6.75642         1.002939     -0.430214     -0.970057
Ti       5.77931      1.92714     10.94319         0.100744     -0.454492      0.250306
Ti       5.81531     13.41753     11.07290         0.219853      0.860539     -1.266208
Ti       5.77615      5.72183      2.38000        -1.008885     -0.704163     -1.855888
Ti       5.76221      5.81665     15.30986        -0.198178     -0.261694     -0.753458
Ti       5.78660      5.66401      6.61140        -0.387530      0.863330      0.061314
Ti       5.66743      5.72012     10.97214         0.908817     -0.028145     -0.894693
Ti       5.70727      9.68612      2.32724         0.635502     -0.639943     -2.088915
Ti       5.78640      9.51481     15.33062         0.644407      0.122734     -0.778076
Ti       5.62410      9.65789      6.70851         1.832070     -0.592924     -1.379208
Ti       5.77206      9.58914     11.03119        -0.404926     -0.428537     -0.106602
Ti       9.48803      1.86533      2.05012         0.387995     -0.479590      0.849148
Ti       9.44905      1.89367     15.40866         1.362399     -0.222194     -0.388698
Ti       9.55874     13.37056      2.30032        -0.301352      0.495278      0.200160
Ti       9.54541     13.44214     15.30486         0.771645     -0.052195     -1.190066
Ti       9.56350      1.92796      6.78277         0.280970      0.181277     -1.380001
Ti       9.71327     13.39376      6.62316        -1.199532     -0.345835     -0.146966
Ti       9.55811      1.99610     10.90590        -0.270591     -0.717399     -0.198819
Ti       9.63636     13.49344     10.89663        -0.112417     -0.070920      0.082043
Ti       9.61681      5.62057      2.46025         0.324718      0.283095     -1.888814
Ti       9.62560      5.74999     15.39826         0.214044      0.751958      0.049698
Ti       9.55204      5.82579      6.60566        -0.030147     -0.508052      0.078126
Ti       9.62647      5.70908     11.08260        -0.921976      0.214035     -2.320254
Ti       9.49262      9.53514      2.29596         0.659072      1.117332     -0.882348
Ti       9.60500      9.54127     15.39671        -1.217501      0.351836     -0.199148
Ti       9.57454      9.53196      6.64473         0.074842      0.868633     -0.214333
Ti       9.50898      9.57934     11.06565         0.850644      0.515273     -1.446015
O       1.83163      1.94253      0.57314         0.340712     -0.155471     -0.401178
O       1.69246      1.89327     13.57464         0.168245     -0.410858      2.250204
O       2.00335     13.45902      0.37000         0.110160     -0.168269     -0.519146
O       1.93055     13.36411     13.60286        -0.042634      0.258702      1.029961
O      13.38732      1.74718      0.38175         0.007562      0.310778      1.322752
O      13.45117      1.98606     13.60904        -0.252024     -0.181398      0.290547
O      13.34926     13.49997      0.40457         0.269113     -0.633254      1.071727
O      13.18262     13.25638     13.54821         0.907435      0.481327      1.069225
O       1.82827      1.81579      4.88439         0.268253      0.038055      1.689012
O       1.69780     13.57606      4.94518         1.045253     -0.449444      1.688283
O      13.18303      1.93261      4.78888         0.427424     -0.108502      0.991571
O      13.52439     13.37839      4.82062        -0.182378      0.109459      1.340944
O       1.81141      1.92760      9.16111         0.246705     -0.087831      0.641543
O       1.90358     13.48640      9.16082         0.060018     -0.347132      0.574879
O      13.38862      2.01416      9.12108        -0.091604     -0.293893      1.601552
O      13.37129     13.50483      9.09119         0.119475     -0.136238      2.194568
O       2.06994      5.75276      0.48422        -0.451229     -0.438367      0.955745
O       1.93136      5.69376     13.59488         0.061327     -0.004505      1.525776
O      13.41619      5.69643      0.51309        -0.170983      0.096600      0.862411
O      13.31542      5.71266     13.66316         0.159444     -0.250305      1.683965
O       1.97836      5.85211      4.87945        -0.210994     -0.040864      0.549730
O      13.52020      5.64539      4.66528        -0.486493      0.366247      0.505817
O       1.85093      5.65463      9.12847         0.105771      0.152933      2.325623
O      13.38968      5.78496      9.28430        -0.318742      0.044094      1.421182
O       1.92414      9.54924      0.31772         0.005298      0.425854      1.323727
O       1.90805      9.62417     13.51122         0.435668     -0.185933      0.991703
O      13.38490      9.70035      0.43939         0.294769     -0.096624      0.774790
O      13.44213      9.69617     13.46970        -0.243302     -0.259627      1.696788
O       1.90603      9.47696      4.84776         0.541447      0.230920      1.379794
O      13.44280      9.54457      4.81804        -0.226513      0.017936      1.734719
O       1.80502      9.49920      9.19623         0.349079      0.080266      1.614703
O      13.54557      9.56051      9.16619        -0.261542     -0.447321      1.834301
O       5.64515      2.03010      0.43344         0.137074     -0.460072      1.426424
O       5.75945      1.92083     13.43647        -0.002451      0.233199      1.700372
O       5.75076     13.59631      0.46080        -0.045731     -0.438277      1.743119
O       5.66981     13.56320     13.45555         0.068495     -0.604468      0.619097
O       5.71503      1.89996      4.89675         0.311298     -0.132896      1.567885
O       5.76498     13.28491      4.95865        -0.184264      0.278035      0.366239
O       5.91608      1.79340      9.16018        -0.568660      0.201327      0.582361
O       5.79866     13.48577      9.20963        -0.212482     -0.264571      1.908586
O       5.88493      5.63851      0.53721        -0.523441      0.108137      0.950078
O       5.78335      5.81881     13.41976         0.065895     -0.278130      2.017506
O       5.70569      5.64734      4.76566         0.193247      0.343977      0.942867
O       5.79544      5.79157      9.08464        -0.474547     -0.061108      2.308905
O       5.79400      9.65484      0.36920        -0.239862      0.003188      2.446895
O       5.80383      9.42549     13.48055        -0.391943      0.362243      1.415369
O       5.69495      9.88434      4.87396        -0.432894     -0.769446      0.924086
O       5.75347      9.53884      9.20609         0.092178     -0.020390      1.145183
O       9.51376      2.09409      0.24375         0.062135     -0.568481      1.303475
O       9.57129      1.74636     13.54081        -0.246452      0.618018      1.154426
O       9.49152     13.33539      0.51970         0.209204     -0.087875      0.127067
O       9.70530     13.51844     13.42589        -0.669862     -0.101701      2.145542
O       9.60565      1.85459      4.93286        -0.226627      0.028330      1.402046
O       9.55370     13.68257      4.82289         0.396963     -0.792978      0.877153
O       9.61132      2.05323      9.12165        -0.004180     -0.048673      0.404396
O       9.69054     13.25819      9.09274         0.127604      0.576069      1.087877
O       9.75363      5.52533      0.57545        -0.603102      0.520442      1.689670
O       9.59852      5.87457     13.59017         0.115573     -0.547019      0.512535
O       9.54471      5.94133      4.80174        -0.144909     -0.555446      0.035060
O       9.55266      5.71368      9.21400         0.576001     -0.017236      1.665724
O       9.49716      9.76456      0.46588         0.272411     -0.682681      1.108542
O       9.62219      9.50556     13.59215        -0.301840      0.365128      0.398269
O       9.65408      9.51890      4.86151        -0.217323      0.041430      0.106924
O       9.46814      9.65921      9.23531         0.351895     -0.372305      1.330270
O       3.75269      1.94548      2.82488         0.595070     -0.280590     -0.464340
O       3.74450      1.93840     15.69889         0.436994     -0.257421     -0.027494
O       3.83681     13.43891      2.80065         0.271749     -0.393753     -0.267826
O       3.97690     13.46714     15.78804        -2.337124      0.133374     -0.057667
O      15.28751      1.83902      2.67075        -0.208654      0.102272      0.006726
O      15.24716      1.88654     15.88846         1.113216     -0.151661     -0.284391
O       0.14948     13.41120      2.56010        -1.311477      0.119748     -0.103237
O      15.29246     13.31203     15.68121         0.939189     -0.090354     -0.053590
O       3.94053      1.81276      7.14183        -1.900525     -0.365126      0.103242
O       3.88183     13.42988      7.17634        -1.336113      0.075493     -0.349485
O      15.33880      2.01277      6.94261        -0.754933     -0.199569      0.335451
O      15.32304     13.39706      7.13475         0.278681      0.180983     -0.032936
O       3.81226      1.84884     11.40200        -0.321046      0.282746     -0.476040
O       3.72917     13.47214     11.34277         1.374419     -0.324903      0.197016
O      15.33831      1.88809     11.32581        -1.105726     -0.156423      0.339107
O       0.02629     13.42526     11.40067        -1.430207     -0.078605      0.258189
O       3.78749      5.64847      2.76512         0.824208      0.398426     -0.016926
O       3.85096      5.78955     15.74119         0.352937     -0.003838     -0.124355
O       0.02455      5.77309      2.68002        -0.236047     -0.249168     -0.134905
O       0.05835      5.73078     15.87880        -1.001249      0.090594     -0.128215
O       3.86014      5.82006      7.03181        -0.033855     -0.380425      0.192861
O      15.31795      5.68078      6.88461         0.269390     -0.030181      0.268379
O       3.81200      5.72562     11.50615        -0.021035     -0.024073     -0.845759
O       0.02299      5.74498     11.53397        -0.991678     -0.086531     -0.440476
O       3.86550      9.74077      2.58353        -0.738395     -0.719374      0.245616
O       3.90143      9.49766     15.75794        -0.443864     -0.010535     -0.290833
O       0.10523      9.53666      2.65565        -1.173154      0.191022     -0.473945
O       0.00276      9.62441     15.61605        -0.509534      0.222717      0.440653
O       3.85673      9.65024      7.14885        -1.174300     -0.206959     -0.039573
O       0.06600      9.44192      7.04406        -0.922481      0.338392      0.091486
O       3.81949      9.64119     11.40413         0.676258     -0.554842     -0.054827
O       0.10671      9.52734     11.52342        -1.666013      0.191321     -0.153983
O       7.64891      1.87003      2.63943        -0.106518      0.398447     -0.123454
O       7.59881      1.90383     15.75085        -0.312443      0.237827     -0.597764
O       7.59946     13.42372      2.75376         0.025189      0.311558     -0.128876
O       7.60414     13.40044     15.74595         0.565314      0.612783     -0.465275
O       7.69546      1.91021      7.09442        -0.171753      0.058533     -0.125642
O       7.77584     13.28557      7.09984        -0.437766      0.265848     -0.236870
O       7.71634      1.93155     11.35426        -0.724976      0.164837      0.086552
O       7.69046     13.45956     11.41601        -0.425028     -0.293948     -0.195448
O       7.59337      5.71976      2.73923         1.798390     -0.115197      0.059815
O       7.70506      5.73386     15.75136        -0.334865      0.374988     -0.225167
O       7.62898      5.72851      6.97676         0.162260     -0.356057     -0.228028
O       7.80298      5.62282     11.51647        -1.801992      0.649530     -0.233635
O       7.66504      9.48384      2.76403        -0.487947      0.211394     -0.147021
O       7.60178      9.53557     15.84504         1.006908     -0.018568     -0.593728
O       7.69046      9.59723      7.04860        -0.741133      0.456634     -0.064185
O       7.68188      9.64515     11.55063        -0.446030     -0.157317     -0.682402
O      11.45342      1.79555      2.52202        -0.182104      0.629033     -0.012213
O      11.44078      1.87698     15.65708         0.321619      0.282268      0.057650
O      11.46589     13.41706      2.64831         0.138639     -0.345779     -0.087659
O      11.44512     13.40496     15.73799        -0.418466     -0.137465      0.124887
O      11.52554      1.83668      7.10235        -0.675395      0.509959     -0.115006
O      11.60414     13.34014      7.08340        -0.690161      0.261277     -0.341474
O      11.46940      1.88893     11.34185        -0.211698     -0.148821      0.347015
O      11.51871     13.46989     11.36258        -0.126457     -0.190624     -0.362845
O      11.52604      5.64130      2.80769        -0.347954      0.372177     -0.429349
O      11.50402      5.69109     15.90626         0.046064      0.386481     -0.182602
O      11.47672      5.89702      6.94815         0.180220     -0.308399      0.143765
O      11.46841      5.77642     11.48701         0.696846      0.171213     -0.058873
O      11.53021      9.72224      2.73216        -0.131093     -0.484832     -0.485505
O      11.47009      9.44752     15.66427         0.377924      0.774862      0.290817
O      11.50113      9.53369      6.97604         0.377587     -0.739127      0.510595
O      11.54422      9.51654     11.34795        -0.244038      0.540715     -0.093908
O       1.90011      3.81063      2.84102        -0.621641      0.030316     -0.372318
O       1.84741      3.79679     15.85196         0.148669     -0.406588     -0.278443
O       1.89615     15.27901      2.69440         0.553530      0.843215     -0.106012
O       1.88339     15.26102     15.80436        -0.070047      0.791800     -0.231933
O      13.41217      3.77990      2.63273        -0.101366     -0.314447     -0.178431
O      13.34628      3.80394     15.85654         0.457089     -0.096615     -0.330395
O      13.37902     15.23675      2.59462         0.369637      1.158764      0.276542
O      13.36715     15.26735     15.74623         0.280987      0.236678     -0.367939
O       1.98402      3.85191      7.04540         0.099296     -0.789957     -0.411593
O       1.79903     15.35638      7.17324         0.536969      0.235152     -0.154474
O      13.35215      3.93628      6.92044        -0.360085     -1.139378      0.387754
O      13.39102     15.33358      6.89968         0.312813      0.376141      0.224508
O       1.78501      3.78134     11.49612         0.941019      0.110249     -0.296040
O       1.79095     15.32395     11.33656         0.477525      0.391050      0.287297
O      13.34690      3.84094     11.39242        -0.025469     -0.321993      0.122942
O      13.39259     15.29552     11.38160         0.286963      1.596301      0.143110
O       1.96721      7.66427      2.51249         0.516214      0.291399      0.555695
O       1.86743      7.70120     15.86816         0.318591     -0.643897     -0.661236
O      13.42365      7.74075      2.54338        -0.343103     -0.743994      0.116174
O      13.43846      7.68422     15.84857        -0.112432     -0.288930     -0.199139
O       1.94400      7.64938      7.17763         0.104418     -0.088135     -0.363728
O      13.51684      7.55674      6.99379        -0.384170      1.122063      0.364454
O       1.84420      7.56166     11.56825         0.950399      0.696063     -0.624067
O      13.44148      7.69717     11.61583         0.072714     -0.592332     -0.763556
O       1.86781     11.47945      2.60644         0.899756      0.365312     -0.299662
O       2.04574     11.43672     15.66718        -0.222939      1.320942      0.287709
O      13.51019     11.54057      2.72634        -0.043337     -0.190748     -0.372270
O      13.29558     11.43178     15.81559         0.372740      0.414433     -0.241728
O       1.79824     11.49135      7.00024         0.818313      0.476088      0.223163
O      13.46302     11.36960      7.10616         0.139479      0.669929     -0.213655
O       1.86759     11.46508     11.30621         0.224735      0.224362      0.344604
O      13.42283     11.52116     11.35176         0.045833     -0.377633     -0.239193
O       5.72402      3.79138      2.77195         0.087822      0.019337     -0.051743
O       5.74742      3.91589     15.68549        -0.077832     -0.981189     -0.292133
O       5.65281      0.08038      2.66426         0.184081     -1.323613      0.109432
O       5.79028      0.05565     15.69738        -0.579475      0.090427     -0.262424
O       5.63283      3.80058      7.11999         0.739509     -0.067422     -0.442883
O       5.91109     15.21304      7.08691        -0.483211      1.356225     -0.291336
O       5.64609      3.85157     11.24631         0.327307     -0.290523      0.068011
O       5.73285      0.03480     11.40390         0.042908     -0.594102     -0.225394
O       5.70222      7.60952      2.59280        -0.220592      0.949677      0.460599
O       5.80898      7.62894     15.86128        -0.173424     -0.275313     -0.515995
O       5.79649      7.66645      6.91310        -0.418374      0.541097      0.214399
O       5.68701      7.63161     11.36867         0.479321      0.240087     -0.352295
O       5.79572     11.47882      2.65781         0.091445      1.132403     -0.306408
O       5.73554     11.47693     15.63588        -0.084598      0.368561     -0.237120
O       5.73315     11.48420      7.29684        -0.030293      0.112228     -0.430845
O       5.77269     11.46842     11.41258        -0.123189      0.796506     -0.083793
O       9.50761      3.76578      2.81171         0.273301     -0.102674     -0.383257
O       9.51349      3.89344     15.61014         0.183042     -1.158009     -0.397040
O       9.50530      0.00618      2.49285         0.015104      0.184122     -0.015112
O       9.62902     15.33017     15.77435        -1.134637     -0.195316     -0.501536
O       9.57568      3.89732      7.01399         0.307749     -0.418041     -0.162010
O       9.61348     15.29907      7.09177         0.175874      0.243755      0.055921
O       9.61646      3.83381     11.41568         0.443393     -0.430885      0.339608
O       9.54960     15.33789     11.17947         0.320482      0.816351      0.208085
O       9.63313      7.68017      2.61485         0.118604     -0.820698     -0.170653
O       9.65262      7.68596     15.85919        -0.609416     -0.740832      0.135300
O       9.45901      7.64118      7.11664         0.457651      0.482589      0.048964
O       9.60182      7.75237     11.41051        -0.259568     -1.079153     -0.148584
O       9.50923     11.49586      2.75657         0.097326      0.011695     -0.058430
O       9.51102     11.51689     15.68066         0.205355     -0.010067     -0.199589
O       9.65277     11.46062      7.05031         0.195157      0.060224     -0.496907
O       9.61381     11.60029     11.41107        -0.172332     -1.151498      0.087123
