  # total energy = -7869.42687737 
CRSYTAL
PRIMVEC
    15.010000000000000    0.0000000000000000    0.0000000000000000
     0.0000000000000000   15.010000000000000    0.0000000000000000
     0.0000000000000000    0.0000000000000000    16.400000000000000
PRESSURE
18.9126 18.814 11.9938 0.02135 -0.032321 -0.009015
PRIMCOORD
320 1
Pb       3.69520      3.75215      4.13669         0.262410      0.011105     -0.190302
Pb       3.75030      3.72113      0.05024        -0.017660      0.135152      0.219305
Pb       3.77123     14.98354      4.10729        -0.412841     -0.074974     -0.165575
Pb       3.65424     14.98059      0.02934         0.503498      0.044338     -0.037916
Pb       0.01588      3.72221      4.08062         0.026357      0.364377      0.291721
Pb       0.02262      3.84201     16.39754        -0.594259     -0.547945      0.440303
Pb       0.05097     14.95980      4.01555        -0.076951     -0.086948      1.055677
Pb      14.99025      0.02211     16.36727        -0.110786     -0.069678      0.184582
Pb       3.84531      3.77460      8.16492        -0.142288     -0.746727      0.559658
Pb       3.76150     14.88452      8.21970        -0.191837      1.126552      0.702270
Pb       0.04253      3.72669      8.14313        -0.046305      0.044134      0.251806
Pb       0.08635      0.01597      8.24982        -0.427485      0.053687     -0.253886
Pb       3.71545      3.73859     12.32727        -0.268641     -0.076333      0.066982
Pb       3.77689     14.96518     12.30239        -0.387989      0.268076      0.524663
Pb      15.00794      3.76157     12.24520        -0.175333     -0.005847      0.365350
Pb      14.97694     15.00073     12.31101        -0.046867      0.141411      0.148851
Pb       3.75709      7.44141      4.13162        -0.587275     -0.019986      0.012754
Pb       3.68901      7.47469     16.37153         0.361656      0.081176      0.097849
Pb      14.87128      7.49404      4.07675         0.691694     -0.052707      0.246488
Pb      14.96528      7.53835     16.35130         0.104697     -0.104395      0.656023
Pb       3.75183      7.43379      8.25317        -0.085238      0.111143      0.046740
Pb      14.92154      7.45129      8.14257         0.887415      0.019932      0.096797
Pb       3.75089      7.45669     12.33995         0.389359      0.072488      0.045795
Pb      14.99820      7.54395     12.30123         0.392416     -0.582433      0.694364
Pb       3.70965     11.33331      4.03913        -0.121163     -0.155560      0.150091
Pb       3.70528     11.35604     16.38749         0.122161     -0.518115      0.048432
Pb      14.89226     11.33704      4.07558         0.685418     -0.471552      0.416545
Pb      14.91493     11.15865     16.36072         0.333384      0.266833      0.100290
Pb       3.72976     11.26903      8.23139        -0.512410     -0.366533      0.716808
Pb      14.91100     11.25157      8.21305         0.550642     -0.051974      0.243103
Pb       3.69798     11.23250     12.34699        -0.033050     -0.369358     -0.162250
Pb      14.94200     11.23250     12.32035         0.222032     -0.042099      0.101129
Pb       7.47322      3.62762      4.20546         0.609766      0.818256     -0.342159
Pb       7.47048      3.69743      0.04646         0.538092      0.440889     -0.312294
Pb       7.47724      0.05586      4.12784         0.368740     -0.743113     -0.414448
Pb       7.56910      0.08739      0.06794        -0.171093     -0.770405     -0.372563
Pb       7.53684      3.75253      8.18719        -0.405051      0.126502      0.225314
Pb       7.52738     14.83912      8.22689        -0.569490      0.546365      0.787996
Pb       7.60112      3.68205     12.30029        -0.422094      0.393187      0.357508
Pb       7.49888      0.03518     12.36903         0.086486     -0.173210     -0.267012
Pb       7.45851      7.51100      4.19714         0.483015      0.064918     -0.291461
Pb       7.45034      7.49568      0.04146        -0.029685     -0.137618     -0.550194
Pb       7.44090      7.54927      8.12296        -0.024531     -0.845691      0.857049
Pb       7.43786      7.43725     12.31271         0.131054     -0.391629      0.602770
Pb       7.36429     11.25128      4.08951         0.503620      0.090031     -0.304204
Pb       7.47682     11.19906     16.38672         0.169999      0.609411      0.555384
Pb       7.37840     11.18922      8.27734         0.603632      0.304196      0.066717
Pb       7.45853     11.18586     12.42483         0.075027      0.255482     -0.442990
Pb      11.33148      3.68363      4.07973        -0.729184      0.720901      0.420593
Pb      11.19316      3.69913      0.00038         0.691200      0.516862      0.132806
Pb      11.17159      0.04208      4.09742         0.167909     -0.246844      0.101102
Pb      11.28237      0.05842     16.39224        -0.338407     -0.440604      0.267996
Pb      11.24654      3.71888      8.17441        -0.096286      0.104100      0.181094
Pb      11.24043     14.95501      8.18933         0.083307      0.100245      0.359536
Pb      11.31531      3.75480     12.33177        -0.331251     -0.277329     -0.013896
Pb      11.27932     14.95894     12.24740        -0.119277      0.232168      0.315882
Pb      11.19672      7.47646      4.05230        -0.070452      0.035513      0.800515
Pb      11.27298      7.52556     16.37920        -0.327602     -0.367375      0.401456
Pb      11.29934      7.53329      8.16481        -0.518604     -0.348201      0.225271
Pb      11.31086      7.56809     12.32773        -1.006030     -0.549934      0.224286
Pb      11.18354     11.26583      4.09205        -0.555512     -0.279046      0.075605
Pb      11.25639     11.29523     16.38559        -0.395241     -0.046797      0.218617
Pb      11.19313     11.16104      8.12808         0.066504      0.406384      0.615317
Pb      11.31540     11.18651     12.31391        -0.240088      0.279622     -0.036323
Ti       1.85726      1.84856      2.08521         1.450288      0.201342      0.359150
Ti       1.86219      1.87197     14.41526        -0.188856     -0.225404     -0.783017
Ti       1.78478     13.07333      2.01182         0.892192      0.688308     -0.302825
Ti       1.84201     13.13859     14.39611         0.253816     -0.410955      1.252469
Ti      13.18279      1.80528      2.22839        -1.114555      0.434123     -1.109746
Ti      13.13199      1.84415     14.49046        -0.213864      0.732211     -0.658582
Ti      13.13156     13.09269      2.12066        -1.143806      0.450837      0.126595
Ti      13.12905     13.11539     14.46744        -0.186962     -0.591586     -0.535827
Ti       1.87609      1.81731      6.15754        -0.066592     -0.204491      0.246365
Ti       1.84797     13.10163      6.27177        -0.457026     -0.167255     -0.641115
Ti      13.08940      1.84191      6.23062         0.384078     -0.183845      1.104967
Ti      13.07874     13.13590      6.23296         0.621164      0.211750      0.295308
Ti       1.80956      1.90203     10.37928         1.097926     -0.086149      0.520475
Ti       1.78450     13.12106     10.38834         0.344685     -0.684174     -0.284127
Ti      13.08989      1.87933     10.28898         0.363842      0.003910      0.123921
Ti      13.06523     13.10473     10.28946        -0.074161      0.116369      0.310657
Ti       1.89878      5.62127      2.13200         0.195500     -0.092362      1.504571
Ti       1.87642      5.58442     14.44282         0.111385      0.721242     -0.444176
Ti      13.13249      5.61414      2.16207        -1.125398     -0.316461     -0.203492
Ti      13.15459      5.59290     14.42709        -0.849222     -0.907901      0.482587
Ti       1.95801      5.56476      6.23750        -1.216242      0.417775     -0.180218
Ti      13.13510      5.59763      6.26711         0.054994     -0.211759     -0.616388
Ti       1.85068      5.66179     10.36528        -0.353157     -0.960179     -0.308612
Ti      13.06277      5.61077     10.37170         1.552083     -1.626999     -0.618177
Ti       1.87548      9.34550      2.12895        -1.040703     -0.065639      0.046572
Ti       1.87153      9.35406     14.49107        -0.117249      0.530088     -0.716829
Ti      13.06341      9.36766      2.12655         0.392003     -0.812502     -0.263153
Ti      13.05651      9.31441     14.46910         0.448553      0.795996     -0.367128
Ti       1.88231      9.39329      6.23122        -0.679122     -0.787256      0.203781
Ti      13.15244      9.40112      6.15818        -0.746179     -0.855367      0.330464
Ti       1.89028      9.32325     10.34749         0.297790      1.157590     -0.299947
Ti      13.15165      9.27056     10.39022        -0.248261      1.332400      0.164327
Ti       5.62758      1.89377      2.10478        -0.330250     -0.063039      0.435310
Ti       5.63222      1.87348     14.46142         0.260293     -0.691088     -0.078109
Ti       5.52244     13.17078      2.02539         1.523077     -1.019287      0.373216
Ti       5.63997     13.13957     14.46576        -0.009313      0.411637     -0.078908
Ti       5.58376      1.80408      6.18905        -0.033410      0.672201      1.526480
Ti       5.55498     13.09355      6.29906         0.009608      0.170861     -1.225325
Ti       5.54189      1.81893     10.41356         0.492843     -0.360115     -1.270539
Ti       5.55185     13.05558     10.37695         0.504901      0.176926      0.054649
Ti       5.71921      5.65629      2.08268        -0.526666     -1.466296      0.605339
Ti       5.63250      5.53430     14.42281         0.688943      1.859892     -0.361597
Ti       5.67535      5.59552      6.14533        -0.233577      0.188164      1.363975
Ti       5.60569      5.47815     10.37336         0.677878      2.027182      0.213248
Ti       5.51853      9.29894      2.17348         1.117341      1.457717     -0.229096
Ti       5.59950      9.36978     14.46314         0.326088     -0.804464      0.626351
Ti       5.50370      9.40272      6.23147         0.766794     -0.859956      1.042007
Ti       5.66747      9.32485     10.33869        -1.418780     -0.452561      1.676363
Ti       9.38431      1.91474      2.07650         0.364663     -0.131061      0.620597
Ti       9.39905      1.88897     14.38769        -0.160484     -0.055860     -0.268266
Ti       9.36454     13.14376      2.15793        -0.442013     -0.330948      1.143972
Ti       9.38837     13.13106     14.40019        -0.129662      0.458671      0.775502
Ti       9.29179      1.86314      6.27330         0.594658      0.409340      0.081227
Ti       9.30914     13.10974      6.25039         0.709238     -0.777397      0.185532
Ti       9.35822      1.84891     10.23097         0.289828      0.019477      1.062114
Ti       9.32406     13.06852     10.42000        -0.215014     -0.225282     -0.381520
Ti       9.36771      5.62996      2.06903         0.401036     -0.301789      1.450320
Ti       9.41383      5.68623     14.49768        -0.648178     -0.756855     -0.261576
Ti       9.39021      5.65571      6.24437        -0.135714     -1.185379      0.606193
Ti       9.37527      5.57402     10.37763        -0.424393      1.480678     -0.349255
Ti       9.30330      9.36004      2.09498         0.507912      0.695751      1.601643
Ti       9.29238      9.38381     14.45189         0.922891     -0.330597      0.656953
Ti       9.30499      9.34949      6.29974         0.248977      0.966925     -0.940013
Ti       9.33159      9.32582     10.33216         0.703129     -0.347168     -0.260424
O       2.01511      1.82340      0.29747        -0.357725      0.176960     -0.680050
O       1.80537      1.93422     12.58169        -0.101327     -0.439635      1.255385
O       1.72099     13.16293      0.20945         0.273950     -0.052153      0.603818
O       1.95049     13.03697     12.66406        -0.124059      0.247146     -2.062691
O      13.06147      1.76955      0.42822         0.084683      0.095142     -0.169347
O      13.05804      1.87697     12.68397         0.302361     -0.333052     -0.182995
O      13.19120     13.11708      0.33627        -0.006994      0.057582     -0.373018
O      13.01218     13.04658     12.65649         0.018579      0.362771     -0.248362
O       1.92090      1.89225      4.33009        -0.360676     -0.355442      0.483567
O       1.98228     13.13798      4.46003        -0.274837      0.045661     -0.346034
O      13.20303      1.88939      4.46502         0.002310     -0.267928     -1.071880
O      13.17165     12.99361      4.44039        -0.374204      0.344506     -0.557468
O       1.90120      1.82413      8.63464        -0.219901      0.044561     -1.503257
O       1.73597     13.06862      8.58523         0.022624      0.208585     -0.432773
O      13.08826      1.85019      8.52591         0.352393      0.110452     -1.096078
O      13.09448     13.09889      8.51304         0.523213      0.098741     -0.439253
O       1.94162      5.62228      0.40153        -0.172678     -0.102844     -1.821677
O       1.79350      5.61258     12.65633         0.467995     -0.028989      0.316478
O      12.97910      5.64577      0.40282         0.635018      0.034915     -0.770005
O      13.16529      5.45406     12.65488        -0.238333      0.544747     -0.167379
O       1.92913      5.45375      4.41180         0.045352      0.378686     -0.140292
O      13.08263      5.60283      4.45200         0.208335     -0.204590     -0.118084
O       1.79070      5.59109      8.56036         0.327938      0.107149     -0.519242
O      13.19287      5.60970      8.56179        -0.074158      0.075673     -0.701958
O       1.87003      9.28239      0.31939         0.134930      0.228238     -0.408923
O       1.86068      9.32412     12.69387         0.062932      0.229802     -0.223816
O      13.17935      9.35690      0.30472        -0.601769     -0.359997     -0.131294
O      13.11685      9.37648     12.63862         0.129346     -0.009985     -0.117599
O       1.93497      9.37242      4.44918        -0.199635     -0.039264     -0.542651
O      13.16089      9.32005      4.37617         0.170236      0.435671     -0.327666
O       1.79213      9.28497      8.57285         0.149452      0.029029     -0.454753
O      13.06518      9.24153      8.61666         0.420992      0.138830     -0.825244
O       5.60125      1.74958      0.33069        -0.097047      0.476185     -0.921763
O       5.67428      1.89369     12.66009         0.122508      0.049267     -0.357753
O       5.63102     13.27573      0.24424        -0.155148     -0.593486      0.212267
O       5.50111     13.07132     12.62045         0.336812     -0.150864      0.422467
O       5.70770      1.84157      4.42908        -0.221375     -0.308409     -1.608917
O       5.43292     13.03953      4.45638         0.265216      0.683969      0.461316
O       5.49748      1.85473      8.61442         0.287341     -0.313135     -0.541486
O       5.64206     13.09705      8.53851        -0.123218     -0.019470     -0.072545
O       5.67782      5.62512      0.31241         0.044904      0.290011     -0.491146
O       5.48298      5.42833     12.62005         0.728445      0.351513      0.237064
O       5.65881      5.59992      4.38360        -0.029664     -0.032106     -0.189923
O       5.61502      5.66281      8.58464        -0.091112     -0.124402     -0.477159
O       5.49503      9.23377      0.41059         0.549606      0.281197     -0.929252
O       5.66142      9.48885     12.72175        -0.025679     -0.103438     -1.337096
O       5.49597      9.39024      4.48115         0.139054     -0.106795     -1.117614
O       5.62211      9.27710      8.60847        -0.085278      0.273892     -1.664803
O       9.47149      1.83998      0.27485        -0.294443      0.072396      0.449960
O       9.35176      1.91173     12.56559         0.137677     -0.469903      0.434016
O       9.44075     13.14562      0.45010        -0.263040     -0.073556     -2.281611
O       9.36141     13.01597     12.63928         0.113457      0.559739     -1.076008
O       9.33025      1.81029      4.46079        -0.287958     -0.195345     -0.264886
O       9.42149     13.20761      4.47912        -0.139672     -0.056460     -0.442460
O       9.29516      1.87886      8.42684         0.140885     -0.046396      0.728771
O       9.33993     13.05759      8.60856        -0.339958     -0.008728     -0.585210
O       9.42081      5.61933      0.32718        -0.317073     -0.097265     -1.155853
O       9.41328      5.68604     12.72808         0.099449     -0.062614     -1.228430
O       9.34678      5.50769      4.52050        -0.045077      0.671848     -1.454209
O       9.24842      5.59830      8.60703         0.510297     -0.172208     -0.720391
O       9.36053      9.38177      0.35625        -0.042508      0.240239     -1.026972
O       9.27504      9.18804     12.71351         0.351682      0.618186     -1.371052
O       9.24802      9.40980      4.51930         0.192014     -0.445475     -0.703953
O       9.39183      9.50324      8.49412        -0.189682     -0.754623      0.749366
O       3.80230      2.16922      2.42222        -0.398916     -0.815517     -0.270188
O       3.76650      1.83917     14.57957        -0.766918      0.194787      0.559467
O       3.65198     12.99564      2.20840         0.321772     -0.288443      0.320493
O       3.73134     13.21408     14.80458         0.340777     -0.192657     -0.194389
O       0.04646      1.58473      2.32650        -0.640339      0.682414      0.181870
O      14.96463      1.93208     14.87158         0.915244     -0.215856     -0.282588
O      15.00992     13.21263      2.46249        -0.647260      0.167387      0.199611
O      14.98523     13.08665     14.56703        -0.156696     -0.403697      0.344524
O       3.73196      1.75632      6.47442         0.319424     -0.212341      0.029688
O       3.69854     13.16224      6.63359         0.877999     -0.228251      0.079843
O       0.01247      1.83934      6.53944         0.255086      0.395492     -0.028307
O      15.00232     13.04821      6.40205        -0.132740     -0.317293      0.583636
O       3.71552      2.04143     10.68684         0.054967     -0.278119      0.360475
O       3.68784     12.88957     10.53538         0.024564     -0.004942      0.249397
O      14.98869      1.70442     10.63485        -0.463741      0.010509      0.007816
O      14.93412     13.18406     10.73959        -0.094748      0.745849     -0.042532
O       3.84174      5.44263      2.37757        -0.686725      0.075950      0.156268
O       3.77080      5.68063     14.76761        -0.790197     -0.413488     -0.082634
O      14.97127      5.73482      2.36084         0.919452     -0.024344      0.308933
O      14.99746      5.58743     14.84507         0.107752      0.067465     -0.124225
O       3.78165      5.59741      6.57655         0.534362      0.647784     -0.165500
O       0.03401      5.53035      6.45481        -0.380170     -0.677024      0.253188
O       3.74037      5.52694     10.72822         0.097842     -0.176558     -0.455029
O      15.00444      5.71499     10.74144         0.061420     -0.008405     -0.425125
O       3.71062      9.52998      2.37386        -0.375255     -0.542686      0.412429
O       3.77718      9.29018     14.66014        -1.119651      0.043668      0.537819
O      14.98610      9.04758      2.27188         0.002486      0.567342      0.595654
O      14.96263      9.38580     14.72716         0.475463      0.021305      0.038631
O       3.69025      9.25798      6.68368         0.608030      0.013191     -0.135533
O       0.01458      9.46581      6.50820        -0.658836     -0.274927      0.073874
O       3.75460      9.49686     10.62883         0.208535     -0.025742      0.213360
O       0.06222      9.20985     10.70382        -1.947161     -0.155121     -0.144829
O       7.53514      1.60160      2.32484        -0.661526      0.101096      0.256028
O       7.53732      1.84756     14.83497        -0.409038      0.420578     -0.337863
O       7.42909     13.16373      2.37430         0.129078      0.500328      0.443086
O       7.52690     13.10854     14.74874        -0.622823      0.064661     -0.043439
O       7.44846      2.01861      6.48136        -0.265975     -0.791450      0.154317
O       7.44592     12.96620      6.51103         0.077224      0.100907      0.087678
O       7.51245      1.71113     10.61628        -0.138873     -0.026926     -0.004856
O       7.44315     13.32778     10.65871         0.256947     -0.360294      0.073311
O       7.55241      5.83181      2.48262        -0.162237     -0.051415     -0.148439
O       7.52241      5.60438     14.68159        -0.119181     -0.225208      0.422059
O       7.49399      5.59300      6.57549        -0.648148     -0.120988     -0.202781
O       7.50043      5.72258     10.68384        -0.083964     -0.171061      0.216585
O       7.47047      9.32009      2.47280        -0.397930     -0.189642     -0.018109
O       7.49087      9.35012     14.78805        -0.451181      0.492886      0.544847
O       7.43113      9.49155      6.64211        -0.256741     -0.134471     -0.481118
O       7.49660      9.16007     10.71855         0.988803      0.553632     -0.468370
O      11.24382      1.97883      2.50416         0.200824     -0.319856     -0.150366
O      11.24519      1.80803     14.71852         0.401756      0.045119      0.121451
O      11.28271     12.96292      2.39952         0.203549      0.255347      0.342216
O      11.24858     13.11621     14.75199        -0.138249     -0.040356      0.235193
O      11.19629      1.82414      6.53430         0.432824     -0.448858     -0.165065
O      11.26455     13.15383      6.63567        -0.913363      0.271187     -0.519750
O      11.27400      2.11648     10.49522        -1.786916     -0.582605      0.338470
O      11.20892     12.93233     10.57816         0.252016      0.225717      0.446372
O      11.17917      5.40219      2.40408         0.981216     -0.010422      0.574691
O      11.28944      5.64582     14.73481        -0.114242     -0.115067      0.188336
O      11.22539      5.62336      6.57267         0.984686      0.358378      0.259763
O      11.27461      5.49360     10.59695        -0.573078     -0.225232      0.334679
O      11.23316      9.44226      2.45063        -0.130309      0.469731      0.092345
O      11.23118      9.46425     14.69608        -0.636714     -0.485411      0.213192
O      11.24408      9.21350      6.48620         0.640070      0.276977      0.117046
O      11.26868      9.37884     10.72355         0.085670      0.446711     -0.232423
O       1.75238      3.70287      2.35377        -0.458076      0.622114      0.139332
O       1.82704      3.74291     14.77043         0.450525     -0.284226      0.173496
O       2.02946     14.99081      2.36005         0.215578     -0.383864      0.245448
O       1.66803     14.99344     14.61326         0.649272      1.187534      0.163158
O      13.23076      3.68707      2.46415         0.392385      0.272355      0.076315
O      13.11258      3.71156     14.87979        -0.204589      0.361139     -0.201720
O      13.01004     14.96966      2.49211         0.040529     -0.594033      0.290688
O      13.13729     14.96691     14.75494         0.184978      0.371552     -0.024171
O       2.06977      3.63718      6.51565        -0.895378      0.630865      0.151996
O       1.87224     14.95080      6.63093        -0.304747      0.651429     -0.249299
O      13.06834      3.69557      6.55461         0.209378      0.523438      0.064863
O      13.22383     14.98634      6.53026        -0.373491     -0.085171      0.046051
O       1.77685      3.79618     10.66799        -0.166624     -0.869165     -0.190866
O       2.03109     14.97270     10.67605        -0.442752      0.152556      0.072297
O      13.18679      3.71313     10.65934         0.821231      0.555056     -0.052094
O      12.89397      0.01976     10.52899         0.284205     -1.077927      0.550648
O       2.03364      7.46560      2.41821         0.330604      0.092966      0.427822
O       1.76073      7.46491     14.69139         0.431528      0.168157      0.449444
O      12.88253      7.46339      2.47851         0.495078     -0.030325     -0.171735
O      13.05089      7.45772     14.66913         0.544762      0.359730      0.234811
O       1.79390      7.40934      6.43570         0.304903      0.758424      0.172551
O      13.21369      7.47009      6.44520         0.062487      0.409512      0.412432
O       2.06943      7.46904     10.67695        -0.342783      0.476376      0.100624
O      13.09649      7.38944     10.70933        -0.210600      2.102971      0.180939
O       1.68342     11.24836      2.35791        -0.074248     -0.580247      0.048474
O       1.98141     11.28392     14.75598        -0.418503     -1.269518     -0.006054
O      13.24247     11.19156      2.32412         0.508688      0.664917      0.427419
O      13.08272     11.20061     14.82516         0.238940      0.714609     -0.290572
O       2.00786     11.23573      6.62105        -0.437823     -0.080323     -0.281844
O      13.08656     11.21659      6.52989        -0.171568      0.054138      0.052871
O       1.61418     11.22194     10.62892         0.542728     -0.067176      0.143585
O      13.21695     11.24537     10.60078         0.198429     -1.137930      0.030620
O       5.91107      3.74113      2.30361         0.159138     -0.049327      0.160739
O       5.72484      3.77933     14.86969        -0.718135     -2.031371     -0.023634
O       5.35635     14.98632      2.31483         0.216984      0.494673      0.808333
O       5.68459     15.00186     14.64840         0.002821      0.403931     -0.024355
O       5.56104      3.71797      6.47077        -0.098974      0.378119      0.125778
O       5.62558     14.98015      6.54675         0.538143     -0.496838     -0.071323
O       5.77773      3.68113     10.51228         0.062555      0.175118      0.603932
O       5.39208     14.94004     10.65421         0.255145      0.182774      0.042639
O       5.60524      7.46442      2.52706        -0.711756      0.654704      0.122163
O       5.75896      7.47698     14.66076        -0.526035     -0.159940      0.206272
O       5.66845      7.53257      6.50673        -0.126069     -1.003017     -0.194095
O       5.60682      7.48364     10.75149        -0.939413     -0.405549     -0.027163
O       5.61072     11.24375      2.49073         0.194054      0.021652     -0.564111
O       5.68136     11.24841     14.88811        -0.681475      0.170529     -0.383184
O       5.50371     11.22358      6.59535        -0.227978      0.360769      0.102000
O       5.77952     11.20682     10.64901         0.321606      0.187441     -0.064342
O       9.18934      3.73172      2.51380        -0.102401     -0.251875     -0.613056
O       9.45775      3.73943     14.74222        -0.317118      0.025156     -0.052159
O       9.54084      0.02232      2.45017        -0.174832     -0.378924     -0.004314
O       9.36222      0.00768     14.69544         0.058258     -0.450691     -0.032427
O       9.38077      3.74468      6.53549        -0.001351     -0.248663      0.241676
O       9.20551     14.95636      6.61927         0.400735      0.389061     -0.367869
O       9.27404      3.76859     10.73761         0.111724     -1.382252     -0.704954
O       9.52407     14.98772     10.58994         0.166696      0.471109      0.016582
O       9.61141      7.51408      2.40467        -0.909388     -0.387309     -0.163096
O       9.33622      7.52441     14.85952         0.403017      0.144520      0.107114
O       9.24823      7.50026      6.53444         0.130806     -0.104265      0.224532
O       9.66035      7.48364     10.58794        -0.826718      0.008014      0.010028
O       9.34013     11.26508      2.52882        -0.369683     -0.436011     -0.071806
O       9.30584     11.27967     14.75709         0.227338     -0.643101      0.207213
O       9.53730     11.21906      6.45359        -0.334829      1.037850      0.228243
O       9.25109     11.17510     10.66804        -0.251336      0.119709      0.339039
