  # total energy = -7881.76462589 
CRSYTAL
PRIMVEC
    15.3600000000000000    0.0000000000000000    0.0000000000000000
     0.0000000000000000   15.3600000000000000    0.0000000000000000
     0.0000000000000000    0.0000000000000000    17.440000000000000
PRESSURE
2.05188 2.42231 1.05211 -0.281271 -0.247294 -0.031364
PRIMCOORD
320 1
Pb       3.83261      3.82603      4.37430        -0.847300      0.398069     -0.569417
Pb       3.88765      3.83351     17.39252        -0.003530     -0.190425     -0.116072
Pb       3.81216      0.02335      4.29001        -0.208445     -0.165733     -0.194917
Pb       3.66618      0.01192     17.38613         1.028164     -0.172358      0.589122
Pb       0.02766      3.71700      4.34965         0.144358      1.031586      0.575744
Pb       0.07422      3.98180     17.39038        -0.053533     -0.271646      0.276776
Pb       0.04519     15.34396      4.29117        -0.570181     -0.195832      0.825972
Pb      15.24175     15.29222     17.39201         0.032240      0.009130      0.378555
Pb       3.75552      3.72731      8.74719         0.104986      0.198123      0.198189
Pb       3.90841      0.01382      8.56679        -0.822203     -0.463336      0.937076
Pb      15.23192      3.89280      8.64842         0.058024     -0.083565      0.247055
Pb      15.22109      0.02449      8.66726         0.206927     -0.261698      0.403323
Pb       3.67955      3.72337     13.08461         0.627465     -0.127390     -0.206291
Pb       3.71752     15.30256     12.96826         0.085520      0.272855      0.368565
Pb       0.03009      3.79412     13.05786        -0.167463      0.271141     -0.242930
Pb       0.01742     15.33364     13.04875        -0.103102     -0.350898     -0.270965
Pb       3.85523      7.64573      4.32601        -0.143245      0.157612     -0.524067
Pb       3.78998      7.57406     17.35041         0.038236      0.531998      0.309929
Pb       0.07970      7.81175      4.36313        -0.278622     -0.460461     -0.156807
Pb      15.12317      7.68655     17.35270         0.458863      0.561540      0.772667
Pb       3.88076      7.69428      8.68703        -0.107855      0.290045      0.428664
Pb       0.07751      7.59316      8.63403        -0.542200     -0.033972      0.376288
Pb       3.78465      7.56941     12.95358         0.552911      0.681849      0.711360
Pb       0.02264      7.62611     13.09590        -0.087833     -0.002883      0.354290
Pb       3.79357     11.59569      4.20958        -0.066688     -0.481828      0.290253
Pb       3.98321     11.58320     17.40203        -0.668379     -0.148975      0.095964
Pb      15.34140     11.57485      4.37110         0.220069     -0.701260     -0.551219
Pb      15.28971     11.59942     17.26828         0.366003     -0.790424      0.993987
Pb       3.86513     11.54663      8.60479        -0.386195     -0.199476     -0.020237
Pb      15.24394     11.40204      8.67051         0.233221      0.164133     -0.097456
Pb       3.87751     11.50178     13.16614        -0.022803     -0.433964     -0.356494
Pb       0.11037     11.58651     13.08145        -0.151193     -0.301034      0.405439
Pb       7.72642      3.72948      4.38941         0.298203      0.675851      0.070382
Pb       7.66400      3.90523     17.36491        -0.138549     -0.396486      0.510970
Pb       7.73187      0.05136      4.34273        -0.260833     -0.042235     -0.079287
Pb       7.62237      0.08424     17.31198         0.107182     -0.291555      0.437558
Pb       7.68101      3.76680      8.76954        -0.682612      0.142262     -0.009676
Pb       7.64572     15.17499      8.66219         0.062334      0.545952      0.495775
Pb       7.81924      3.87155     13.14478        -0.150599      0.355054     -0.669558
Pb       7.61145      0.13020     13.04976         0.503664     -0.869182      0.404421
Pb       7.69535      7.53728      4.29859         0.280592      0.435425      0.525607
Pb       7.64122      7.76974     17.37211         0.146795     -0.247928      0.614787
Pb       7.64634      7.70032      8.63441         0.009498     -0.032748      0.504876
Pb       7.52867      7.69030     13.00208         0.428723      0.046096     -0.092167
Pb       7.66008     11.55850      4.30468        -0.431708     -0.710147      0.688710
Pb       7.76394     11.49937      0.02836         0.091988     -0.063826     -0.124142
Pb       7.45451     11.54902      8.52893         0.906007     -0.273480      1.191180
Pb       7.71476     11.43619     13.05041        -0.186788     -0.251834     -0.209088
Pb      11.43813      3.80585      4.29123        -0.108436     -0.132508      1.096440
Pb      11.75172      3.87353     17.42522        -0.978587     -0.020738      0.196269
Pb      11.45789     15.24241      4.29433         0.699974      0.813039      0.401611
Pb      11.40546     15.28723     17.43771         0.429465      0.277908     -0.230695
Pb      11.35657      3.87872      8.69556         1.058826     -0.379856      0.082278
Pb      11.54262     15.30947      8.68721        -0.077165      0.026462      0.205886
Pb      11.61060      3.73165     13.10283        -0.411785      0.282262     -0.403248
Pb      11.61451      0.00554     12.93253        -0.700819     -0.649543      0.993549
Pb      11.45912      7.69197      4.28194         0.420326     -0.069442      1.260815
Pb      11.58343      7.63195     17.37103         0.069832      0.241087      0.510414
Pb      11.45919      7.67636      8.71736         0.357585     -0.258178     -0.443620
Pb      11.40084      7.68166     13.02946         0.159524     -0.092389      0.062150
Pb      11.59119     11.43925      4.30209        -0.035239      0.031110      0.292400
Pb      11.43443     11.40909     17.35701         0.192980      0.353122      0.705573
Pb      11.64719     11.49272      8.56631        -0.621018      0.166246      0.973354
Pb      11.53961     11.44793     12.98519        -0.437348      0.552092      0.762326
Ti       1.79834      1.83294      2.30221         1.514265      1.312832     -0.015284
Ti       1.80916      1.89625     15.47713         0.941201     -0.054254     -0.821983
Ti       1.87618     13.41147      2.17491        -0.011261     -0.576213     -0.011439
Ti       1.85822     13.46699     15.43883         0.977235     -0.902477      2.031872
Ti      13.41657      1.95974      2.33741        -0.983448     -0.417422     -0.111129
Ti      13.42090      1.92013     15.49248        -1.028686     -1.522808     -0.732758
Ti      13.46653     13.46736      2.33477        -1.502674     -0.372861     -0.041005
Ti      13.33661     13.41050     15.38241         0.724382      0.664882     -0.590731
Ti       1.84798      1.88797      6.71745        -0.157477     -0.001944     -0.018056
Ti       1.75707     13.46432      6.71273         1.069675     -0.981939      0.667358
Ti      13.40802      1.91946      6.70847        -0.835318     -0.726153     -0.453388
Ti      13.37766     13.43291      6.71729        -0.164286     -0.425452     -1.008147
Ti       1.75698      1.85497     11.01767         1.911565     -0.248288     -0.047382
Ti       1.93787     13.29819     11.02052        -0.975641      1.226540     -0.200126
Ti      13.39820      1.86541     11.00708        -0.076915      0.072204     -0.906218
Ti      13.35533     13.27720     11.10438         0.875775      1.185685     -1.058507
Ti       1.82189      5.76920      2.27428         0.316764     -0.215920      1.799283
Ti       1.91863      5.81686     15.40523         0.516941     -0.284378      0.044022
Ti      13.41841      5.75334      2.58827         0.929036      1.098735     -0.909335
Ti      13.43133      5.68694     15.32720        -0.308127      2.018812      0.341906
Ti       1.96192      5.70574      6.86171        -1.029313      0.355712     -2.134323
Ti      13.39180      5.67253      6.65326         0.237486      0.883306      0.051958
Ti       1.87571      5.75624     11.04186        -0.277124     -0.390940      0.132856
Ti      13.42328      5.74902     11.05213        -0.125463     -0.588769     -1.128373
Ti       1.95053      9.56770      2.21052        -0.543024      0.403488     -0.681495
Ti       1.91288      9.61258     15.47909        -0.124478      0.580215      0.098565
Ti      13.44704      9.62789      2.41062         1.058632     -1.064845     -0.612046
Ti      13.43612      9.68743     15.31436         0.264634     -1.707180      0.288545
Ti       1.94854      9.58952      6.66558         0.380824     -0.461189      0.081973
Ti      13.45979      9.42946      6.72892         0.257482      0.065732     -1.369297
Ti       1.90309      9.55551     11.05643         1.493103     -0.030957     -0.187128
Ti      13.56178      9.52545     11.09195        -0.888724      0.546929     -0.525375
Ti       5.76596      1.94987      2.39269        -0.578629     -0.985108     -1.803332
Ti       5.73049      1.86863     15.41808        -1.107031      0.414569     -0.260913
Ti       5.75304     13.49541      2.38320        -0.941137     -0.259798      0.464742
Ti       5.80214     13.42518     15.37028        -0.756184     -0.047248     -0.420715
Ti       5.74656      1.89125      6.68101        -0.170683      0.284742      1.050200
Ti       5.67922     13.43692      6.57883        -0.530032     -0.576171     -0.358517
Ti       5.73516      1.93090     11.07459        -0.960369     -0.033151      1.412728
Ti       5.72561     13.47650     11.14663        -0.236339     -1.089608      0.619780
Ti       5.77689      5.66892      2.33276        -0.755069      1.115995     -0.548443
Ti       5.81916      5.72555     15.37606        -1.586958      0.165268     -0.142179
Ti       5.76422      5.66963      6.70991        -0.194711     -0.010512      0.935555
Ti       5.72465      5.75867     11.01047         0.754868     -0.221810      0.721479
Ti       5.83551      9.54876      2.31735        -1.301649      0.502547     -0.135661
Ti       5.75078      9.58724     15.50048        -0.159962     -0.496382     -0.901607
Ti       5.82204      9.49745      6.62490        -0.770839      0.789600     -1.252282
Ti       5.75857      9.62056     11.04000         0.220550     -0.896551      1.195002
Ti       9.61179      1.92770      2.21976        -0.000328      0.010171     -0.442590
Ti       9.56166      2.00380     15.43600         0.732326     -0.826081     -0.555769
Ti       9.58255     13.41085      2.46028        -0.307397     -0.152381     -1.985951
Ti       9.59697     13.48591     15.42285         0.474087      0.119306     -1.642435
Ti       9.54782      1.88764      6.76910         0.710612     -0.921126     -0.474426
Ti       9.55447     13.47575      6.69809         0.085050     -0.724865      1.018219
Ti       9.54313      1.87496     11.05014         0.085285      0.109155      1.129702
Ti       9.51887     13.41597     11.07408         0.237369     -0.145466      0.340440
Ti       9.60654      5.69549      2.31564        -0.544836      0.808617      1.017352
Ti       9.56780      5.78204     15.49080         1.078616     -0.389757     -1.210925
Ti       9.56868      5.68102      6.81374        -0.225586      1.234929     -2.160602
Ti       9.65248      5.75362     11.00975        -1.100324     -0.329795      1.242687
Ti       9.61066      9.60641      2.38978        -0.040071     -0.616068     -0.876237
Ti       9.65790      9.58612     15.41890        -0.994796     -0.180336      0.715121
Ti       9.66320      9.66543      6.79639        -1.444496     -0.914978     -1.480536
Ti       9.69078      9.61514     10.90107        -1.489345     -0.231006      1.326030
O       1.88276      1.88761      0.54243        -0.614837      0.156959      0.105583
O       1.86589      1.73607     13.66213        -0.373908      0.330333      0.814119
O       1.88550     13.37382      0.41775        -0.105415      0.174823      0.518678
O       1.92733     13.44600     13.73260        -0.078931     -0.001958     -2.150861
O      13.44538      2.02952      0.54100        -0.058037      0.306231      0.427128
O      13.34643      1.69433     13.73402         0.678573      0.735386     -0.067761
O      13.32583     13.44112      0.61881        -0.000910     -0.110279     -1.060773
O      13.26223     13.31153     13.61217         0.623694      0.608549      0.035330
O       1.87773      1.83471      4.94288        -0.108307     -0.100168     -0.275158
O       1.82731     13.50344      4.99496        -0.311612      0.044194     -1.180788
O      13.33367      1.75796      4.97450         0.120957      0.205360     -0.519352
O      13.34649     13.43732      4.93061         0.167185     -0.108767     -0.085645
O       1.87355      1.92504      9.25975        -0.416402     -0.270223      0.387138
O       1.83456     13.27686      9.28924         0.150643     -0.154304     -0.892011
O      13.35601      1.78373      9.19860         0.266694      0.471795      0.831200
O      13.37228     13.27822      9.29618         0.120714      0.034792     -0.139013
O       1.87744      5.80384      0.54227        -0.046823     -0.496747     -1.053447
O       1.85646      5.67821     13.66859        -0.075777      0.321318     -0.676552
O      13.50583      5.73146      0.79016        -0.523503     -0.573173     -0.616150
O      13.42721      5.77449     13.59811        -0.235924     -0.267919     -0.457346
O       1.86138      5.72809      5.06575         0.686089     -0.010745      0.630425
O      13.38462      5.85674      4.93370         0.506024     -0.393265     -1.017456
O       1.68275      5.77723      9.29640         0.718318     -0.316269     -0.225258
O      13.41786      5.62527      9.23459        -0.274596      0.276073      0.977365
O       1.84492      9.59034      0.41261         0.154978      0.083409      1.323878
O       2.07100      9.62968     13.72768        -0.509472      0.049920     -0.533789
O      13.52051      9.58793      0.67457        -0.447870      0.053453     -1.408369
O      13.45684      9.63916     13.58164        -0.213418     -0.183429     -0.383915
O       1.96126      9.56003      4.88986        -0.143083     -0.271481      0.258525
O      13.57333      9.50368      4.92013        -0.479771      0.209050      0.549996
O       1.98877      9.46486      9.27800        -0.552248      0.478121      0.896603
O      13.52030      9.57016      9.27566        -0.260795     -0.053092      0.950702
O       5.73469      1.92073      0.59895         0.296731      0.068930      0.535614
O       5.52284      1.96336     13.68137         0.888986     -0.390180     -0.235470
O       5.73901     13.50703      0.65059         0.328247     -0.323641     -0.724893
O       5.65893     13.38196     13.59783         0.235317      0.091458      0.380689
O       5.65057      1.97607      4.95129         0.091768     -0.117889     -0.880415
O       5.59635     13.52533      4.84044         0.210383     -0.177206     -0.039863
O       5.78971      1.82049      9.36854        -0.330065      0.189847     -1.495535
O       5.70295     13.22356      9.43699        -0.113050      0.569755     -2.005149
O       5.72458      5.57842      0.55216         0.045921      0.334847      0.506572
O       5.75349      5.81411     13.61425         0.300533     -0.265813      0.587056
O       5.77390      5.67517      4.95678        -0.442454     -0.140564     -0.250704
O       5.87078      5.82764      9.26891        -0.299690     -0.463992     -0.057856
O       5.73916      9.68034      0.53140         0.368085     -0.145419     -0.020472
O       5.93819      9.52509     13.71822        -0.622841      0.105746      0.553834
O       5.78019      9.55459      4.84115        -0.030253     -0.291346      0.686047
O       5.66789      9.47456      9.33842         0.403622      0.432312     -2.153457
O       9.67729      1.97758      0.44498        -0.280577     -0.317860      0.592362
O       9.40986      1.94225     13.63803         0.422417      0.485481      0.009195
O       9.54334     13.29764      0.63090         0.215590      0.426228      1.022417
O       9.71236     13.50715     13.67330        -0.500730     -0.508561      0.082337
O       9.43587      1.89443      5.02250         0.276326     -0.050581     -0.711179
O       9.46110     13.45279      4.98425         0.319467      0.277355     -1.831231
O       9.38052      1.88398      9.32740         0.682828     -0.049841     -0.947243
O       9.57437     13.47777      9.34321        -0.309430     -0.003711     -0.710945
O       9.48090      5.76987      0.61082         0.436030     -0.097140     -0.966491
O       9.68769      5.60803     13.68576        -0.358858      0.259963      0.675849
O       9.31621      5.67519      5.03682         0.431983     -0.108475      0.089666
O       9.63109      5.66051      9.26008        -0.021364     -0.166185     -1.436245
O       9.56786      9.71244      0.58086         0.280770     -0.090540      0.807028
O       9.52404      9.61371     13.70877         0.377931     -0.316189     -0.858626
O       9.44302      9.49099      4.99737         0.818385      0.495671      0.600151
O       9.58605      9.64766      9.15925         0.425245     -0.318235     -0.130742
O       3.72840      1.79855      2.62403        -0.002719      0.378791      0.659950
O       3.81276      1.82412     15.81954        -0.204827      0.131423      0.272100
O       3.68733     13.50193      2.68784         0.973933      0.192355      0.164657
O       3.81943     13.48497     15.91291         0.686693     -0.209706     -0.580721
O      15.23202      1.82896      2.90834         0.379039      0.640749     -0.951560
O      15.27364      2.03446     15.82178         0.963801     -0.699205      0.152628
O      15.28156     13.38413      2.52136         0.549557      0.126210      0.839162
O      15.33660     13.45671     15.78366        -1.419527      0.393559     -0.066017
O       3.73567      1.89737      7.18095         0.841358     -0.430865     -0.300672
O       3.75466     13.39669      7.01230         0.449485      0.167248      0.421797
O      15.30653      1.88768      7.09775        -0.228271     -0.275686      0.074907
O      15.22843     13.24174      7.10473         0.457722      0.485010      0.018846
O       3.71970      1.78842     11.55655        -0.030900      1.006724     -0.720773
O       3.76352     13.32697     11.43495         0.878030      0.134479      0.408960
O      15.27612      1.86791     11.60675         0.317199     -0.206946     -0.605500
O      15.31781     13.30098     11.51008         0.169580      0.494119      0.042346
O       3.80386      5.72025      2.79908        -0.187183      0.269817     -0.133686
O       3.82956      5.63607     15.71344        -0.066076      0.621728      0.511444
O      15.32821      5.67048      2.82157         0.380600      0.149507      0.083059
O      15.35214      5.80004     15.79548        -0.514414     -0.362844     -0.085454
O       3.80546      5.70985      7.30477         0.864290     -0.434482     -0.537317
O      15.33402      5.71728      7.14142        -0.251441     -0.149514      0.015071
O       3.77088      5.77347     11.42178         0.143591     -0.271713     -0.382343
O      15.26792      5.78194     11.49993         1.021833      0.100501      0.180248
O       3.85401      9.46308      2.60212        -0.606176      0.473814      0.373515
O       3.76772      9.60804     15.83582         1.506522      0.273883      0.320283
O      15.34639      9.73961      2.73853         1.009474     -0.408635      0.482773
O      15.28923      9.52015     15.74682        -0.097168      0.333645      0.007395
O       3.87273      9.48796      7.13427         0.011047      0.437503     -0.437437
O      15.32292      9.42974      7.13792         0.779005      0.448252     -0.365210
O       3.85937      9.47442     11.43132        -0.745976      0.404431      0.321700
O       0.04450      9.48867     11.65810        -0.006985      0.761862     -0.983145
O       7.70694      1.83967      2.70409        -0.733176      0.475815      0.093445
O       7.65247      1.99619     15.76283        -0.509936     -0.373226      0.296375
O       7.57208     13.42584      2.85059         1.453953      0.227873     -0.224393
O       7.75105     13.49373     15.72084        -1.346923     -0.638913      0.410466
O       7.61782      1.82865      7.05146        -0.631249      0.243599      0.327099
O       7.62065     13.42162      7.06412        -0.362515      0.262241     -0.024881
O       7.65161      1.76773     11.44599        -0.414069      0.773170      0.099328
O       7.58429     13.44378     11.44950         1.285219      0.212725      0.377537
O       7.62027      5.72358      2.81822         0.522659     -0.350049     -0.534809
O       7.69724      5.86897     15.86669        -0.665970     -0.584482     -0.316355
O       7.61906      5.52302      7.06224        -0.245287      0.443446      0.664414
O       7.70697      5.79446     11.47438        -0.051288     -0.600133     -0.163811
O       7.70977      9.69953      2.62890         0.018700     -0.652178      0.251643
O       7.68719      9.54038     15.88365        -0.244515      0.396938      0.003276
O       7.66967      9.56765      7.15145        -0.458286      0.007578     -0.099006
O       7.72269      9.48826     11.48036         0.576173      0.009465     -0.388865
O      11.45411      1.98053      2.72778        -0.024963     -0.034683     -0.111991
O      11.49750      1.96006     15.66718         0.039819      0.397290      0.804338
O      11.45236     13.32676      2.82749        -0.278602      0.466247      0.032822
O      11.54572     13.56612     15.77962        -0.959037     -0.759948      0.705036
O      11.48703      1.73680      7.09234        -0.448877      0.710023      0.340753
O      11.44981     13.37612      7.06487         0.460188      0.037698      0.129895
O      11.55592      1.91252     11.51256        -0.808584      0.412565     -0.524957
O      11.49184     13.35305     11.44122        -0.274363     -0.135377     -0.057747
O      11.48857      5.76104      2.92506        -0.625563     -0.581845     -0.721841
O      11.48652      5.80990     15.86493         0.860000     -0.796363      0.010624
O      11.46249      5.71206      6.79124        -0.452442     -0.481381      1.522525
O      11.53178      5.56815     11.34849         0.071933      0.503238      0.577002
O      11.52982      9.47790      2.75510        -0.925016      1.030341      0.200364
O      11.51557      9.60288     15.85660         0.398848     -0.059544     -0.266278
O      11.53592      9.49616      7.19405        -0.341473      0.144423     -0.424179
O      11.53674      9.57719     11.67177        -0.227988     -0.122042     -1.735995
O       1.76659      3.83557      2.76355         0.507312     -0.861914     -0.335423
O       1.93732      3.77444     15.70758        -0.411339      0.358707      0.513100
O       1.68990     15.32526      2.68081         0.519056     -0.122270     -0.200656
O       1.85693     15.29931     15.97933        -0.654228      1.625342     -0.667901
O      13.32745      3.85454      2.99559         0.603547     -1.168861     -0.826166
O      13.42840      3.87628     15.76812        -0.063759     -0.177519      0.062893
O      13.22357      0.06344      2.56448         0.383815     -0.755727      0.530666
O      13.40856     15.31555     15.97352         0.103771      0.778070     -0.399018
O       1.81094      3.74358      7.09578         0.523742      0.507112      0.379614
O       1.73544     15.29977      7.12836         0.357675      0.349943      0.127748
O      13.35725      3.78122      7.01920        -0.028970      0.098081      0.298271
O      13.36523     15.28920      7.07393         0.547705     -0.516144      0.430537
O       1.87169      3.83719     11.40419        -0.440505     -0.458301      0.335184
O       1.86980     15.28203     11.32640        -0.540106      0.233983      0.448459
O      13.55539      3.81933     11.43172        -0.491481     -0.558679      0.296422
O      13.35364     15.32756     11.30923         0.586270     -0.223624      0.395788
O       1.79080      7.69103      2.63154         0.287415     -0.286769      0.249962
O       1.97478      7.71611     15.77816        -0.303478     -1.362745     -0.080802
O      13.50871      7.69101      2.66515        -0.241788     -0.533396      0.938044
O      13.33994      7.69514     15.82951         0.227021     -0.565412     -0.346914
O       1.95241      7.61623      7.15706        -0.179017      0.390658     -0.077221
O      13.35166      7.54269      7.10321         0.031185      0.803721      0.455617
O       1.89720      7.63085     11.57854        -0.399245      0.280266     -0.479489
O      13.40229      7.71490     11.45200        -0.283304     -1.173748      0.087173
O       1.90953     11.54961      2.71853         0.025902     -0.220606     -0.170658
O       1.76229     11.58462     15.80382         0.603258     -0.870322     -0.180745
O      13.34240     11.46816      2.70089        -0.117738      1.745556      0.838115
O      13.42342     11.51925     15.69203        -0.254716      0.421861      0.505864
O       1.89506     11.42770      6.91335        -0.203151      0.418496      0.726736
O      13.38276     11.34812      7.04070         0.115752      0.994167      0.128615
O       2.00900     11.48530     11.52907        -0.746755     -1.553083     -0.000961
O      13.45318     11.45836     11.42710        -0.042588     -0.879199      0.208257
O       5.62716      3.81414      2.71020         0.406791     -0.437779      0.518540
O       5.71194      3.82988     15.81303         0.502169     -0.063477     -0.058029
O       5.71224      0.01708      2.78061         0.110207      0.364597      0.292781
O       5.84894     15.28858     15.80079        -0.264121      0.881436     -0.151826
O       5.62938      3.75630      7.27672         0.322092     -0.203735     -0.687949
O       5.69084     15.29534      7.04390         0.025448      0.685749      0.158475
O       5.64168      3.81486     11.47225         0.360730     -0.097220     -0.304527
O       5.61095     15.32984     11.41788         0.397636      0.407527      0.305270
O       5.81024      7.68049      2.64274        -0.048248     -0.768616      0.200201
O       5.67500      7.62820     15.90953         0.286362      0.172684     -0.216039
O       5.77266      7.64621      7.03621         0.164972     -0.958246     -0.023657
O       5.75703      7.63123     11.41036        -0.064915     -0.168849      0.510431
O       5.70217     11.51531      2.81051        -0.137823      0.195023     -0.418637
O       5.65285     11.50994     15.71186         0.676975      0.242173      0.373591
O       5.77143     11.51484      6.94856        -0.489945     -0.197153      0.182943
O       5.87224     11.41031     11.43253        -0.607813      1.056870      0.683012
O       9.48148      3.81488      2.68908         0.339263     -0.116260      0.198776
O       9.53779      3.86093     15.91476         0.185446      0.575723     -0.389094
O       9.55135      0.02112      2.72112         0.255820     -0.775633      0.010702
O       9.59236      0.06389     15.70366        -0.097827     -0.186923      0.951685
O       9.58801      3.71830      7.12293        -0.080078      0.934622      0.630107
O       9.57248     15.33634      7.17963        -0.381128     -0.507988      0.039516
O       9.55553      3.81063     11.41895        -0.118417     -0.748538      0.200735
O       9.59069     15.29955     11.51874         0.016782      0.748527     -0.296279
O       9.71981      7.61134      2.80310        -1.642746      0.507819     -0.574309
O       9.65430      7.65955     15.88908        -0.252403      0.456162     -0.152574
O       9.54503      7.64300      7.14132         0.092474     -0.531513      0.391543
O       9.70476      7.63520     11.26709         0.371719      0.378384      0.296164
O       9.51670     11.49690      2.83635         0.661898      0.115863      0.037304
O       9.61219     11.48684     15.84804        -0.061261      0.546639     -0.078481
O       9.51276     11.52276      7.08992         0.423156      0.195061     -0.112131
O       9.52474     11.44314     11.43540         0.311364      0.431456     -0.037376
