  # total energy = -7881.90543525 
CRSYTAL
PRIMVEC
    15.3600000000000000    0.0000000000000000    0.0000000000000000
     0.0000000000000000   15.3600000000000000    0.0000000000000000
     0.0000000000000000    0.0000000000000000    17.440000000000000
PRESSURE
1.10866 0.601582 3.3553 -0.259638 -0.257092 0.008092
PRIMCOORD
320 1
Pb       3.87073      3.77733      4.29599        -0.237546     -0.132070     -0.574633
Pb       3.74537      3.84136     17.42909         0.255582     -0.439310     -0.080161
Pb       3.83122     15.30350      4.31721        -0.416020      0.385640     -0.796263
Pb       3.80614     15.26068     17.39497         0.178613      0.521089      0.109003
Pb       0.02612      3.81729      4.28643        -0.263716     -0.132566     -0.299698
Pb      15.27575      3.78294     17.34333         0.286325     -0.140626      0.241617
Pb      15.35417      0.01123      4.37019        -0.234225      0.265831     -0.446265
Pb       0.12828      0.02294     17.37125        -0.832131     -0.329398     -0.306547
Pb       3.87660      3.80419      8.70548        -0.406041      0.035947     -0.801955
Pb       3.83152     15.35946      8.53905        -0.199093     -0.003646      0.294896
Pb       0.12878      3.83860      8.73848        -0.262256     -0.143368     -0.704489
Pb      15.34512     15.28769      8.69572         0.199221      0.485689     -0.336038
Pb       3.85140      3.86780     13.10545         0.341502      0.349326     -0.435368
Pb       3.91820      0.11115     13.09160        -0.350969     -0.291043     -1.071774
Pb       0.02547      3.85898     13.00362        -0.709405     -0.136682     -0.303198
Pb      15.32814     15.29693     13.10590        -0.081115      0.469469     -0.882228
Pb       3.79335      7.65404      4.36437        -0.173442     -0.545718     -0.410799
Pb       3.89578      7.67310     17.36353        -0.540366     -0.104136     -0.078249
Pb      15.24588      7.68542      4.31997        -0.161035     -0.145815     -0.213223
Pb       0.03873      7.55224      0.02244         0.087239      0.291594     -0.560581
Pb       3.72358      7.73202      8.59822         0.133869     -0.686749      0.257386
Pb      15.34897      7.72533      8.63829        -0.355279     -0.110151     -0.464065
Pb       3.88823      7.69139     13.00841        -0.397310     -0.501170     -0.323965
Pb      15.26411      7.65315     13.00999         0.226610     -0.329267     -0.405582
Pb       3.93755     11.47085      4.40286        -0.416541      0.470854     -0.753334
Pb       3.68854     11.60871     17.42923         0.215836     -0.443286     -0.378051
Pb      15.25459     11.38881      4.42886        -0.024059     -0.055979     -0.437964
Pb       0.01121     11.48640      0.01236        -0.001998      0.134384     -0.534224
Pb       3.89837     11.44400      8.63286        -0.774488      0.686514      0.398015
Pb      15.34808     11.61362      8.68720         0.288296     -0.600262     -0.048503
Pb       3.77881     11.50864     13.07066        -0.007986      0.077323     -0.875637
Pb      15.31204     11.50526     12.96962        -0.118579      0.047274     -0.448308
Pb       7.61385      3.88456      4.25788        -0.028606     -0.535889     -0.474869
Pb       7.58454      3.76597      0.06368         0.277981      0.401421     -0.355346
Pb       7.59891     15.23958      4.40838         0.600695      0.594958     -0.666626
Pb       7.80246     15.31624     17.43497        -0.524887     -0.093428      0.255085
Pb       7.66331      3.86876      8.62894         0.051792      0.219437     -0.525305
Pb       7.65876      0.10792      8.73587         0.227553     -0.776421     -0.584847
Pb       7.65479      3.77220     12.95699        -0.066016      0.514767      0.022289
Pb       7.62635     15.29660     13.08527         0.246343     -0.288973     -0.951514
Pb       7.72642      7.72620      4.38971        -0.260920     -0.116534     -0.419072
Pb       7.60477      7.72271     17.37832         0.409845     -0.814113     -0.038730
Pb       7.76348      7.53420      8.73052        -0.191782      0.274322     -0.819966
Pb       7.76410      7.72550     13.11366        -0.067150     -0.617311     -0.812122
Pb       7.64224     11.49840      4.35465         0.014880     -0.093226     -0.742750
Pb       7.66908     11.41704     17.37631        -0.158327      0.358045     -0.363433
Pb       7.65507     11.57650      8.70518         0.260668     -0.056916     -0.182128
Pb       7.56506     11.45435     13.00067         0.149867      0.547256     -0.302214
Pb      11.48585      3.91872      4.31325         0.359471     -0.798139     -0.594538
Pb      11.49652      3.83422     17.42694        -0.347982     -0.619365     -0.640108
Pb      11.56774     15.33258      4.44705        -0.217225      0.243824     -0.795721
Pb      11.51176      0.01153      0.06923         0.524698      0.227143     -0.902796
Pb      11.53638      3.69426      8.67716         0.045875      0.255741     -0.496679
Pb      11.52323      0.10501      8.73467        -0.252313     -0.411751     -0.755880
Pb      11.51057      3.81173     12.96318        -0.140213     -0.184603     -0.217682
Pb      11.52024      0.00286     13.09997        -0.251057     -0.132800     -0.461093
Pb      11.50079      7.60997      4.40892         0.625430      0.259126     -0.780597
Pb      11.49641      7.74757     17.35858        -0.356102     -0.444627     -0.402692
Pb      11.53239      7.68236      8.67651        -0.089763      0.118490     -0.293576
Pb      11.55766      7.59946     13.15351        -0.408492      0.311290     -0.760160
Pb      11.47266     11.57156      4.27200         0.192860     -0.093156     -0.111282
Pb      11.51405     11.49369     17.41556        -0.058981      0.181350     -0.648364
Pb      11.53092     11.51572      8.62335        -0.262531      0.055735     -0.244365
Pb      11.52901     11.55874     13.11869        -0.243518     -0.154177     -0.859171
Ti       1.87213      1.85408      2.29185         0.316836      1.076921      2.369335
Ti       1.92786      1.85873     15.27990         0.054871      0.271139      1.792289
Ti       1.86727     13.32412      2.40260         0.799791      1.273048      1.721278
Ti       1.88914     13.36352     15.24876        -0.663000      0.193925      1.127180
Ti      13.35530      1.85496      2.28817         0.233032      0.157935      0.722204
Ti      13.45258      1.86463     15.37544        -1.885491     -0.847368      1.504304
Ti      13.49933     13.36472      2.27218        -0.738208      1.038027      1.541649
Ti      13.43044     13.36516     15.40074        -0.194068      1.446996      3.357107
Ti       1.86616      1.91320      6.65704         0.078452      0.524311     -0.183131
Ti       1.90853     13.42954      6.62336        -0.587576     -0.028199      1.611474
Ti      13.40685      1.89419      6.65363         0.401307      0.247910      0.721002
Ti      13.45573     13.39418      6.60548        -1.392120      0.603130      0.816858
Ti       1.92991      1.94347     11.04793        -0.952468     -1.599274      1.092261
Ti       1.84912     13.42040     11.06184         0.807330      0.873138     -0.920606
Ti      13.40267      1.89929     10.98737         0.328267     -0.057910      0.372211
Ti      13.37404     13.45115     10.86592        -0.230217     -0.501288      2.717302
Ti       1.89125      5.74889      2.29240        -0.067397     -0.297326      2.351408
Ti       1.87593      5.66987     15.35115         0.959211      0.753984      0.588744
Ti      13.43273      5.68495      2.23288         0.002863      0.459817      2.144899
Ti      13.41370      5.71730     15.39918        -0.288496     -0.204407      0.683030
Ti       1.90245      5.76242      6.58557        -0.780034     -0.850088      2.781372
Ti      13.40654      5.68854      6.69659         1.131428      0.172773     -0.391213
Ti       1.85261      5.70213     11.00699         0.385101      0.464970      0.836755
Ti      13.35692      5.77222     10.87980         0.395687     -0.165987      0.595362
Ti       1.84577      9.58540      2.37293        -0.411904     -0.304992      1.565439
Ti       1.88857      9.50673     15.35564        -0.034256      0.564070      3.127406
Ti      13.29434      9.56245      2.22434         1.351638     -0.449527      3.278575
Ti      13.46736      9.58703     15.40911        -0.431903     -0.138648      1.773536
Ti       1.89495      9.57965      6.65159        -2.325150      0.691658      0.067128
Ti      13.35747      9.56216      6.60574         0.498719     -0.055975      0.938938
Ti       1.83449      9.52887     11.05585         0.371938      0.684973     -0.364419
Ti      13.33805      9.58845     10.94216        -0.301008     -0.034366      1.020085
Ti       5.75721      1.83314      2.23158        -1.403431      1.251330      0.231230
Ti       5.72325      1.89241     15.41942        -0.417467      1.139795     -0.577783
Ti       5.79131     13.42587      2.19736        -2.120277     -0.239754      0.402396
Ti       5.73159     13.47003     15.34973         0.259853     -0.439358      3.178898
Ti       5.78045      1.89484      6.62840        -1.044267      0.251189     -0.131834
Ti       5.79887     13.39083      6.65854        -0.480048      0.780993      1.875613
Ti       5.78032      1.88442     11.01526        -0.912776      0.018828      0.660222
Ti       5.69630     13.44206     10.98507        -0.319447     -0.037557      1.401621
Ti       5.77972      5.82836      2.39214        -0.742463     -0.896906      1.535641
Ti       5.79583      5.73407     15.36038        -0.898805     -1.356031      0.237703
Ti       5.71252      5.73510      6.68582        -0.076215     -0.224286      0.226849
Ti       5.74847      5.75309     10.93764        -0.042419     -0.291814      2.815910
Ti       5.61884      9.57155      2.25879         1.038332     -0.213892      0.821567
Ti       5.70331      9.59449     15.35266        -0.469368      0.161783      1.384917
Ti       5.67717      9.52524      6.66905         1.235501      0.052960      2.382929
Ti       5.69337      9.59156     11.00338        -0.405761     -0.280217      1.166536
Ti       9.54078      1.85715      2.31860         0.492347     -0.078895      1.559401
Ti       9.44978      1.79856     15.33270         2.337995      1.026071      0.829992
Ti       9.59934     13.37454      2.23948         0.173750      1.092957      1.227363
Ti       9.55026     13.39712     15.44021         0.993176     -0.320939     -0.280441
Ti       9.51412      1.94682      6.58476         0.689670     -1.146537     -0.873899
Ti       9.59425     13.38770      6.63739         0.217974      1.261400      1.683089
Ti       9.52838      1.88833     10.97003         1.287503     -0.749190      1.800428
Ti       9.63986     13.35001     10.99251        -0.846982      1.553052      1.444856
Ti       9.60015      5.75189      2.28965        -0.515305     -0.904195     -1.604952
Ti       9.56825      5.60275     15.36134        -0.414654      0.701842      1.711446
Ti       9.70399      5.74741      6.53703        -2.243642     -0.011726      2.574442
Ti       9.56816      5.75470     10.95048        -1.041416     -0.243205      1.012472
Ti       9.51190      9.53921      2.30882        -0.142450      0.463869      0.839018
Ti       9.52407      9.55096     15.35259         1.366385     -0.433804      1.401272
Ti       9.51083      9.56983      6.70355         0.727189      0.038116      0.356593
Ti       9.53267      9.60716     11.01666         0.812582     -0.033162      1.234529
O       1.82967      1.92002      0.58691        -0.021615     -0.350553     -2.149684
O       1.97084      1.89928     13.54279        -0.225767      0.087269      0.071014
O       1.87562     13.31652      0.69504        -0.086383      0.130991     -2.221484
O       1.87141     13.30550     13.52141        -0.156688      0.291814     -1.113971
O      13.20397      1.85440      0.52733         0.671844      0.303708     -0.051758
O      13.43496      1.76786     13.66029        -0.217918      0.184520     -1.939957
O      13.46557     13.34713      0.55020         0.215200     -0.037796     -0.648238
O      13.35921     13.51090     13.73438         0.114563     -0.375931     -3.122241
O       1.95192      1.93497      4.90071        -0.362587     -0.030533      0.162536
O       1.93238     13.51900      4.90986         0.094175     -0.355558     -1.228225
O      13.39953      1.85330      4.93977        -0.139629      0.212985     -1.297556
O      13.36214     13.46197      4.86021         0.088771     -0.409021     -0.305566
O       1.77172      1.90679      9.34134         0.268932      0.034054     -1.978687
O       1.70793     13.40222      9.24992         0.252859      0.347472      0.509757
O      13.37443      1.91570      9.22663        -0.164518     -0.060174     -0.542271
O      13.44123     13.51255      9.17446        -0.247055     -0.131683     -1.882535
O       1.91982      5.72199      0.59833        -0.202079      0.228936     -1.998314
O       1.84326      5.64485     13.61267        -0.212080     -0.074336     -1.018430
O      13.43407      5.74093      0.52046        -0.067803     -0.093374     -2.001577
O      13.41988      5.65400     13.65432        -0.072810      0.445154     -0.190528
O       1.88261      5.73368      4.91524        -0.059638      0.040024     -2.685523
O      13.43956      5.72426      4.91970        -0.457380     -0.017674      0.065401
O       1.91221      5.67717      9.26604        -0.021295      0.314431     -0.062706
O      13.27434      5.89166      9.11478         0.258791     -0.450848      0.406632
O       1.92473      9.65700      0.67651        -0.336094      0.049484     -1.944565
O       1.95684      9.58197     13.69922        -0.148336      0.104376     -3.756843
O      13.36137      9.55466      0.53680         0.095558     -0.001316     -2.094172
O      13.38911      9.68226     13.71128         0.035747     -0.258883     -2.044850
O       1.81152      9.69804      4.90783         0.627499     -0.236282     -0.425761
O      13.37804      9.65841      4.87112        -0.041853     -0.079963     -0.547966
O       1.74323      9.57598      9.30835         0.721252     -0.417731     -0.446542
O      13.32034      9.35988      9.22575         0.049096      0.408257     -0.764620
O       5.45748      1.96497      0.49799         1.015372     -0.556603     -0.325918
O       5.76760      1.83519     13.59237        -0.245006      0.373088      0.194282
O       5.69187     13.46923      0.44933         0.071305     -0.342676     -0.716158
O       5.82192     13.47316     13.66506        -0.280444     -0.179154     -1.465746
O       5.86894      1.86822      4.88690        -0.241597     -0.010527     -0.793519
O       5.84617     13.34933      4.94875        -0.220673      0.155219     -1.610793
O       5.68050      1.91250      9.27673         0.302892     -0.318493     -0.736542
O       5.68503     13.48744      9.27465        -0.076302     -0.237963     -1.986628
O       5.77326      5.95224      0.71833        -0.179174     -0.227450     -2.862508
O       5.65086      5.54637     13.62848         0.453000      0.393723     -0.474010
O       5.60348      5.72288      4.96882         0.532439      0.076765     -1.822003
O       5.74524      5.65812      9.24150         0.052443      0.356259     -1.983881
O       5.72814      9.38014      0.51950        -0.023818      0.555082     -0.498623
O       5.65728      9.75430     13.63237         0.125123     -0.715189     -0.997009
O       5.66026      9.66084      4.99245         0.036216     -0.096190     -2.235971
O       5.63117      9.53827      9.29298        -0.069705      0.231458     -1.700269
O       9.51696      1.76350      0.59205         0.169595      0.448303     -1.223634
O       9.58718      1.88124     13.57686        -0.346449     -0.214477     -0.165315
O       9.53089     13.45636      0.50400         0.013638     -0.528934     -0.649041
O       9.53125     13.48675     13.67687         0.144657     -0.266392     -0.099104
O       9.56959      1.83238      4.80472        -0.379147      0.226943      0.638684
O       9.60274     13.54787      4.92110        -0.373266     -0.603800     -1.333606
O       9.62853      1.94745      9.26494        -0.441503     -0.167929     -2.072390
O       9.53626     13.32989      9.29038         0.032629     -0.025551     -1.918354
O       9.47147      5.67538      0.47919         0.389257      0.194718      0.887292
O       9.50884      5.62967     13.63677         0.272136     -0.005271     -1.173441
O       9.62125      5.84603      4.82147         0.004427      0.008932     -1.346286
O       9.41826      5.74312      9.19476         0.219779     -0.036491      0.021296
O       9.56928      9.61473      0.58035        -0.144390     -0.252034     -0.687428
O       9.51652      9.52305     13.63949         0.041445      0.238227     -1.862095
O       9.57873      9.48427      4.96988        -0.427520      0.059749     -1.297979
O       9.66668      9.59139      9.31149        -0.549550     -0.006840     -1.383284
O       3.76732      1.94570      2.64751         0.671622     -0.863671      0.626106
O       3.81951      1.90288     15.81312        -1.487727     -0.067267     -0.475750
O       3.86490     13.50884      2.63487        -0.480151     -0.182732      0.728955
O       3.77118     13.34540     15.79793         0.934220      0.308409     -0.350084
O      15.30062      1.87047      2.74236        -0.265024      0.593930     -0.097309
O      15.32120      1.81728     15.67197         1.454367      0.026040      0.475839
O      15.34890     13.41242      2.76675        -0.107769     -0.203245      0.007780
O      15.35509     13.46300     15.71919         0.269620     -0.037833      0.287947
O       3.82457      1.90338      6.90863        -0.124070     -0.177205      0.885928
O       3.73669     13.50046      7.03028         0.926805     -0.447223      0.057628
O      15.30480      1.95330      7.00576         0.264553      0.140259      0.345567
O      15.25459     13.39221      7.05426         0.880320      0.107063     -0.096339
O       3.77545      1.90026     11.40869         1.331131      0.363438      0.218144
O       3.75572     13.44095     11.39456         0.481883     -0.002011      0.366354
O      15.23996      1.83031     11.47004         0.323475     -0.047442      0.251192
O      15.25790     13.30036     11.40192        -0.117989      0.688115      0.357319
O       3.79850      5.87072      2.78098         0.151333      0.113960      0.021195
O       3.74029      5.65859     15.62304         0.902347      0.236457      0.788887
O      15.30573      5.64159      2.66376         0.406092      0.398065      0.049394
O       0.03416      5.76252     15.81073        -1.672355      0.074473      0.305138
O       3.75584      5.65172      6.96563         0.523174      0.558702      0.885302
O      15.32197      5.63090      7.05372        -0.101880      0.404086      0.223833
O       3.76663      5.70539     11.47958         0.466758     -0.228870     -0.292406
O      15.27503      5.78756     11.39977         0.350063      0.082237     -0.044550
O       3.77895      9.36561      2.68838         0.547959      0.660919      0.347200
O       3.79107      9.55103     15.80925         0.646542      0.281751      0.076005
O      15.25206      9.64458      2.83000         0.376010      0.032618     -0.532902
O      15.34027      9.48632     15.76962        -0.056038      0.295553      0.397417
O       3.72651      9.55092      7.09901         1.157990      0.307003      0.069446
O      15.33553      9.53074      6.99760        -0.509835      0.304995      0.319209
O       3.81566      9.53174     11.42602        -0.747913      0.084617      0.325684
O      15.29405      9.61626     11.32100        -0.022963     -0.259725      0.926898
O       7.63820      1.96881      2.60613         0.207607     -0.133169      0.162479
O       7.58438      1.85731     15.82130         0.841565     -0.001167      0.080499
O       7.53665     13.32429      2.61475         2.571755      0.013983      0.657677
O       7.69064     13.39629     15.82595        -1.261928      0.069151     -0.018107
O       7.61204      1.78314      6.99163         0.900273      0.868449      0.774717
O       7.62007     13.37097      7.13917         0.388399     -0.045092     -0.082736
O       7.67874      1.73558     11.37793        -0.222734      0.243680      0.000011
O       7.55334     13.47650     11.35163         1.274325     -0.338837      0.580824
O       7.62819      5.63969      2.65071         0.630342      0.063916      0.832286
O       7.63964      5.69643     15.73913        -0.217659      0.004740      0.239167
O       7.59382      5.78165      6.99799         1.073022      0.077777      0.427518
O       7.67129      5.72996     11.51502        -0.308526      0.210152     -0.484058
O       7.60966      9.78829      2.71873         0.651790     -0.891094      0.106303
O       7.66239      9.56225     15.69570        -0.715805     -0.224389      0.467090
O       7.62976      9.59656      7.09111        -0.502205     -0.107811      0.050298
O       7.53433      9.59013     11.42055         1.656915     -0.052684      0.321053
O      11.48490      1.91982      2.75519        -0.235806     -0.125079      0.034811
O      11.47692      1.79856     15.70927        -1.058653      0.585995      0.269005
O      11.49592     13.44597      2.68852        -0.017172     -0.407032     -0.155049
O      11.54497     13.40827     15.78428        -0.944487     -0.573141      0.335557
O      11.41994      1.92018      7.00502         0.039116     -0.177397      0.643762
O      11.46892     13.38384      7.04348         0.420022      0.349471      0.134028
O      11.47802      1.89280     11.27279         0.362558      0.726306      0.859992
O      11.49779     13.28507     11.44297         0.758746      0.118678      0.031555
O      11.50964      5.84195      2.65971        -0.506299     -0.177473      0.182545
O      11.44117      5.65602     15.69688         1.149620      0.001370      0.330670
O      11.42897      5.67251      7.05991         1.083113      0.405730     -0.115517
O      11.39994      5.76471     11.40156         1.210408     -0.254446      0.070607
O      11.47501      9.51527      2.71668        -0.734426      0.015546     -0.073082
O      11.49810      9.57774     15.78113         0.097738      0.097268      0.326132
O      11.44181      9.57310      6.97403         0.701392     -0.154383      0.563110
O      11.44793      9.58340     11.41837         0.206967     -0.327087      0.489025
O       1.94343      3.83934      2.72000        -0.206698      0.216579      0.144221
O       1.77942      3.79722     15.87988         0.386776     -0.855112     -0.660515
O       1.79605      0.05355      2.83255         0.709372     -1.454865     -0.275715
O       1.92123     15.27479     15.76816         0.075666      0.878667     -0.251693
O      13.38207      3.82454      2.70865        -0.270446     -0.174307     -0.053247
O      13.40732      3.76114     15.80280         0.182331      1.099606      0.129029
O      13.40599     15.35213      2.70803         0.050480     -0.655366     -0.013771
O      13.33468      0.00571     15.89709         0.829007     -0.866960     -0.006149
O       1.88319      3.82950      7.17750         0.161246     -0.516746     -0.175339
O       1.74637     15.35648      7.05759         0.453220     -0.227580      0.129219
O      13.32185      3.82777      7.02534        -0.154565     -0.308435      0.504222
O      13.40050      0.02225      6.98596        -0.262495     -1.084819      0.513119
O       1.73994      3.79192     11.36393         0.289111      1.033272      0.402193
O       1.92599      0.03655     11.45667        -0.703066     -0.975920      0.334840
O      13.51723      3.90781     11.35227        -1.004160     -0.607059      0.016674
O      13.26917     15.29891     11.31776         0.448829      0.188093      0.238722
O       1.73013      7.70956      2.71793         0.178095     -0.803120      0.205618
O       1.93391      7.68964     15.79478        -0.297209     -1.191193      0.178638
O      13.44979      7.60998      2.77065        -0.094952      0.795635     -0.443959
O      13.35720      7.63749     15.86992         0.186031     -0.420536     -0.477198
O       1.79809      7.67125      7.03548         0.746746     -0.286851      0.158347
O      13.46992      7.66087      6.94899        -0.746229     -0.116882      0.343223
O       1.85943      7.63155     11.51783         0.046526      0.351725     -0.139549
O      13.41470      7.61150     11.46098        -0.418934      0.566036      0.320445
O       2.02202     11.50478      2.74688        -0.148970     -0.426100      0.496086
O       1.84362     11.54079     15.69875         0.089215     -0.845250      0.749764
O      13.46533     11.48305      2.74099        -0.782941      0.004378     -0.330841
O      13.48187     11.48982     15.91226        -0.090793     -0.419966     -0.280561
O       1.78479     11.49490      7.13704         0.706645      0.287940     -0.339743
O      13.37969     11.46546      7.12621         0.172768      0.296864     -0.421738
O       1.93621     11.55022     11.32366        -0.248975     -1.514739      0.912359
O      13.32194     11.45860     11.27222         0.402421      0.148086      0.356427
O       5.68889      3.74793      2.61755         0.074514      1.143271      0.704138
O       5.64054      3.78426     15.87582         0.604655      0.860533      0.004097
O       5.76201     15.32992      2.57338         0.184135     -0.239210      0.619685
O       5.71638      0.07449     15.71265        -0.301523     -2.595961      0.324294
O       5.76298      3.83047      7.07984        -0.034655     -0.671593      0.287490
O       5.73778     15.34890      7.02444        -0.084097     -0.587104      0.277437
O       5.81760      3.80053     11.29555        -0.175065     -0.174129      0.531245
O       5.73453     15.32436     11.44221        -0.499796      0.691736      0.355231
O       5.93806      7.72223      2.78195        -0.546999      0.231341      0.502372
O       5.74214      7.58854     15.82722        -0.149292      0.695521     -0.527685
O       5.64933      7.64717      7.01928        -0.181090      0.629138      0.350353
O       5.73626      7.60748     11.40149        -0.143392      0.296852      0.187911
O       5.69686     11.45515      2.75084        -0.833512      0.097710     -0.133752
O       5.78405     11.42459     15.77234        -0.185783      1.115917      0.176166
O       5.67778     11.52517      7.03579        -0.349731     -0.755950      0.443086
O       5.69481     11.51167     11.42307        -0.136222     -0.102855      0.075336
O       9.61190      3.86740      2.70644        -0.030603     -0.361165      0.176087
O       9.49810      3.72547     15.87390         0.043684     -0.291426     -0.289544
O       9.54675     15.29600      2.64750        -0.460761     -0.180712      0.234871
O       9.58736     15.28127     15.91009        -0.459731      0.609738     -0.510126
O       9.53412      3.82765      6.92382        -0.435659      0.203134      0.257547
O       9.45957     15.33701      6.99022         0.345231      0.020869      0.670420
O       9.50765      3.79503     11.35709         0.164983      0.155802      0.146724
O       9.77748     15.24010     11.32282        -0.800932      1.249294      0.296968
O       9.38029      7.59617      2.68005         0.312507      1.603142      0.174173
O       9.60390      7.62970     15.64671        -0.128092     -0.063227      0.500234
O       9.62789      7.64061      7.13119        -0.630918     -0.045144     -0.209992
O       9.55300      7.67337     11.41411        -0.418224     -0.113204      0.257975
O       9.61256     11.50330      2.70664        -0.045456     -0.152027      0.170325
O       9.59346     11.44444     15.81486        -0.187798      0.600028      0.187474
O       9.63475     11.51040      7.03892        -0.730413     -0.600088      0.222090
O       9.58038     11.53721     11.39451        -0.691307     -1.755203      0.775421
