  # total energy = -7882.80815239 
CRSYTAL
PRIMVEC
    15.3600000000000000    0.0000000000000000    0.0000000000000000
     0.0000000000000000   15.3600000000000000    0.0000000000000000
     0.0000000000000000    0.0000000000000000    17.440000000000000
PRESSURE
1.26928 1.30752 2.68061 0.189867 0.048624 -0.021066
PRIMCOORD
320 1
Pb       3.75941      3.83486      4.32912         0.514187      0.180052     -0.153460
Pb       3.83770      3.83120     17.36775         0.393755      0.454876      0.451340
Pb       3.81609      0.02271      4.27254        -0.223009     -0.043241     -0.066383
Pb       3.71294      0.04677      0.01290         0.106754     -0.631710     -0.587922
Pb       0.00328      3.75212      4.36924        -0.539817      0.055197     -0.481999
Pb       0.04423      3.95444     17.37787        -0.781051     -0.377036      0.621589
Pb      15.33152     15.29743      4.30066         0.235527      0.102419     -0.236884
Pb      15.24475     15.28344     17.43668         0.710320     -0.035409     -0.405263
Pb       3.77732      3.73436      8.76132        -0.041914      0.479845     -0.329283
Pb       3.89898     15.34820      8.63506        -0.493173     -0.068348      0.289543
Pb      15.31792      3.80469      8.69453        -0.472157     -0.200110     -0.733519
Pb      15.28301      0.04365      8.66310         0.106538     -0.263452     -0.078006
Pb       3.65353      3.77545     13.04355         0.188264      0.644929      0.009211
Pb       3.72981     15.26861     13.02526         0.659585     -0.366104      0.364633
Pb      15.35297      3.80642     13.04870        -0.352014     -0.382756     -0.181480
Pb       0.04327     15.35991     13.01633        -0.390957      0.254962      0.388949
Pb       3.83289      7.63408      4.29307         0.115828      0.066678      0.188528
Pb       3.76921      7.61372     17.35032         0.220511      0.328655      0.469835
Pb       0.02869      7.74500      4.37618        -0.111333     -0.246749      0.021971
Pb      15.13056      7.69924     17.32469         1.458946      0.204486      0.548550
Pb       3.91988      7.65370      8.75558        -0.132331     -0.510225     -0.819923
Pb       0.07848      7.59876      8.68437        -0.296737      0.422417     -0.144246
Pb       3.76930      7.61765     12.97334         0.477574      0.294218      0.100400
Pb       0.04450      7.62830     13.07128        -0.244542      0.390818     -0.731842
Pb       3.76335     11.56000      4.21801         0.497512     -0.273233      0.040463
Pb       3.95623     11.53164     17.41986        -0.376348      0.000805     -0.108618
Pb      15.28959     11.57510      4.33813         0.659559     -0.419978      0.427939
Pb      15.29560     11.57726     17.31858         0.550591     -0.307772     -0.064625
Pb       3.81548     11.54763      8.61100        -0.271753     -0.103518      0.288565
Pb      15.25047     11.38623      8.64649         0.653297      0.362925      0.474606
Pb       3.83040     11.52897     13.15408         0.196531      0.094163     -0.430381
Pb       0.02509     11.55185     13.12989         0.042490     -0.286860     -0.414446
Pb       7.71848      3.73803      4.41859        -0.182951      0.566326     -0.359053
Pb       7.64898      3.90967     17.34835        -0.048326     -0.079241     -0.276189
Pb       7.73920      0.08438      4.29054        -0.391420     -0.251074     -0.185723
Pb       7.68178      0.05346     17.36137        -0.233100     -0.224037      0.022909
Pb       7.71748      3.70362      8.76038        -0.219443      0.186571      0.157876
Pb       7.62815     15.17407      8.62775         0.171664      0.335750      0.304414
Pb       7.74025      3.83229     13.19288         0.170598      0.292382     -0.766485
Pb       7.56968      0.07653     13.09404         0.619058     -1.116006     -0.051894
Pb       7.65780      7.58428      4.30194        -0.512722      0.398981      0.059360
Pb       7.69818      7.70835     17.39670        -0.104856     -0.137572     -0.355153
Pb       7.59216      7.69847      8.65377        -0.003059      0.097881      0.044284
Pb       7.50908      7.65249     12.98961         0.672976      0.017338      0.173850
Pb       7.67052     11.54685      4.33074        -0.376770     -0.260135     -0.245612
Pb       7.77029     11.49905      0.07641        -0.365929      0.136783     -0.838268
Pb       7.46518     11.48880      8.59511         0.750767      0.076390     -0.267151
Pb       7.65872     11.40385     13.08838         0.003167      0.527685     -0.148528
Pb      11.43591      3.80413      4.33552         0.171785      0.444098     -0.109457
Pb      11.69038      3.84918     17.37581        -0.689524     -0.036247      0.269061
Pb      11.40442     15.29176      4.27749         0.451472      0.670023      0.342993
Pb      11.52062     15.31648     17.40951        -0.733804     -0.039139     -0.347362
Pb      11.38960      3.85823      8.70752         0.806436     -0.493209      0.168745
Pb      11.53202     15.26081      8.65661        -0.064413      0.237750      0.294597
Pb      11.58110      3.77604     13.10839        -0.238049      0.383037     -0.564342
Pb      11.61610     15.35784     12.90351        -0.754878     -0.257709      0.719074
Pb      11.41577      7.76378      4.28951         1.040195     -0.498336     -0.029068
Pb      11.59955      7.60422     17.38761        -0.662536      0.207171     -0.018700
Pb      11.41863      7.62737      8.71436         0.658713      0.466178      0.209836
Pb      11.46683      7.71109     12.94767         0.023902     -0.457175      0.117445
Pb      11.55414     11.46109      4.37590         0.242637     -0.470376     -0.026301
Pb      11.48542     11.46036     17.41232         0.281041      0.061999     -0.600187
Pb      11.59589     11.52421      8.64198        -0.271305     -0.557024      0.113182
Pb      11.50362     11.44993     12.98524        -0.015670      0.024615      0.005747
Ti       1.88595      1.93736      2.23745        -0.722795     -0.404486      1.148881
Ti       1.84725      1.99501     15.47448        -0.462316     -1.544900     -0.394407
Ti       1.88468     13.39787      2.26574         0.251340      0.218629     -1.497223
Ti       1.98242     13.46815     15.40135        -0.621692     -0.670700      1.391073
Ti      13.35451      1.85841      2.24498         0.571483      0.746042      1.618634
Ti      13.37674      1.81794     15.46110         0.429939      1.063892      0.160055
Ti      13.29215     13.40978      2.31787         2.297854     -0.558618      1.448685
Ti      13.42914     13.39998     15.34981        -0.130494     -0.410563      1.227223
Ti       1.84473      1.84894      6.62321        -0.435879     -0.076995     -0.005910
Ti       1.88907     13.37790      6.69271        -0.837910      0.609289      0.829293
Ti      13.34219      1.82254      6.61788         0.640079      1.386175      2.321591
Ti      13.42684     13.37058      6.54378         0.636204      0.556276      1.522551
Ti       1.90042      1.89750     11.03272        -1.358786     -0.277998     -0.299890
Ti       1.84141     13.46338     11.03049         1.626603     -0.904512      0.506653
Ti      13.38182      1.92525     11.00001         0.606515     -0.024204     -1.300970
Ti      13.47670     13.42271     11.07996        -0.314061     -1.147291     -0.169413
Ti       1.87986      5.72374      2.34766        -0.037318      0.915156      0.390697
Ti       1.87041      5.76805     15.40423         0.193019      0.751338      1.037179
Ti      13.43043      5.71391      2.44437        -0.340829      0.408678      1.324545
Ti      13.40876      5.73488     15.27001        -0.177462     -1.163434      0.909382
Ti       1.89225      5.72725      6.62792         0.659232     -0.079243      0.900731
Ti      13.39555      5.80728      6.66481         0.210302     -1.223269      1.800579
Ti       1.87473      5.74247     11.03872         0.844821     -0.044884     -0.267582
Ti      13.43839      5.70580     11.05685        -0.654023      0.415459      1.854906
Ti       2.01544      9.55063      2.31454        -0.743551     -0.170438     -1.341798
Ti       2.00379      9.60234     15.39949        -0.552132      0.403684      1.293123
Ti      13.62814      9.55863      2.32828        -2.013360     -0.107794      1.461694
Ti      13.47098      9.49541     15.28187        -0.143065      1.791791      0.921610
Ti       2.02880      9.56111      6.69980        -0.970281     -0.086288     -0.112530
Ti      13.49573      9.54408      6.69077        -0.585191     -0.358139     -0.183236
Ti       1.95014      9.64944     11.11996        -0.542765      0.676336     -0.694263
Ti      13.45670      9.59721     11.04447         0.159421      0.172140     -0.496814
Ti       5.73948      1.91811      2.29763         0.264453      0.868040      0.392571
Ti       5.68076      1.89184     15.29805         0.958170     -0.717319      1.912264
Ti       5.70174     13.45937      2.26479         0.214188     -0.343711      1.283053
Ti       5.77311     13.40190     15.38563         0.430558     -0.127148     -0.534606
Ti       5.69417      1.94781      6.68593         0.234271     -0.331119      0.991351
Ti       5.69605     13.47607      6.58071         0.861680     -0.439803     -0.596748
Ti       5.68402      1.94944     11.24778         1.236924     -0.940823     -0.698926
Ti       5.78226     13.37300     11.11031         0.095315      0.729351      1.480792
Ti       5.73294      5.74692      2.33190        -0.276409     -0.203175     -0.404747
Ti       5.71055      5.70580     15.29106         1.171777      0.630732      0.906993
Ti       5.74623      5.66843      6.76563        -0.744988      1.356167      0.473584
Ti       5.78399      5.65130     11.07329        -0.306615      0.947553     -0.113242
Ti       5.78756      9.60697      2.25726         0.482189     -0.115966      0.712447
Ti       5.80080      9.53344     15.43520         0.002951      0.923882      0.339547
Ti       5.77657      9.62691      6.51892        -0.042540     -0.418574     -0.183226
Ti       5.72315      9.55329     10.96231         0.246167      0.109749      1.690615
Ti       9.57414      1.96146      2.25421         0.064597      0.017248     -0.057602
Ti       9.54068      1.95914     15.33297         0.613645     -0.298223      2.358552
Ti       9.53862     13.42861      2.28909         0.101033      0.143342     -0.170107
Ti       9.57266     13.46188     15.40450         0.049444     -0.715426      0.114312
Ti       9.54816      1.83542      6.77488         0.336222      0.647270      0.987786
Ti       9.60297     13.34608      6.59355        -0.196437      0.120901      2.466433
Ti       9.54277      1.90357     11.12045         0.382991     -0.347364      0.882648
Ti       9.59641     13.35879     11.05235        -0.045219      0.706832      1.091393
Ti       9.49664      5.75198      2.28333         1.257412     -0.366737      1.602788
Ti       9.65938      5.75043     15.32544        -1.352782      1.076743     -0.696216
Ti       9.54432      5.81951      6.78123         0.833815     -1.618273     -1.044531
Ti       9.56867      5.74270     11.02596         0.575974      0.174527      2.826001
Ti       9.65339      9.63898      2.39124        -0.286151      0.093664      0.208163
Ti       9.62707      9.58990     15.39081         0.312484      0.136056      0.741529
Ti       9.58911      9.56024      6.60931         1.149812      0.836602      1.790520
Ti       9.53794      9.55170     10.91185         0.771125     -0.150129     -0.110078
O       1.83781      1.89058      0.49792         0.619639      0.050276     -0.648950
O       1.76614      2.06827     13.68137         0.427018     -0.161985      0.634859
O       1.89752     13.49095      0.43097         0.130878      0.013387      1.150862
O       2.02548     13.41269     13.68671        -0.273036      0.402610     -1.801229
O      13.34867      1.96952      0.53177         0.041674     -0.337113     -1.091265
O      13.41918      1.90366     13.72193        -0.040923     -0.097197     -0.547915
O      13.37151     13.31196      0.59909         0.244510      0.152731     -0.963257
O      13.55811     13.44844     13.63724        -0.359692     -0.124582     -0.970642
O       1.75463      1.82486      4.82486         0.323566      0.366833      0.520180
O       1.73500     13.37497      4.97266         0.859947      0.108027     -1.021206
O      13.46032      1.84194      4.91737        -0.028612     -0.119501     -1.562970
O      13.41831     13.44509      4.79127         0.098831      0.140493     -0.022587
O       1.75832      1.85437      9.28700         0.746845      0.118842     -0.086509
O       1.97418     13.33778      9.31930        -0.010765      0.388193     -0.930689
O      13.42380      1.92111      9.19855        -0.054814     -0.101594      1.102359
O      13.36051     13.27689      9.34534         0.142064      0.340043     -0.511761
O       1.85931      5.68093      0.61123         0.006416      0.368331     -1.191975
O       1.87909      5.75203     13.67972         0.052902     -0.382743     -1.125414
O      13.28299      5.73973      0.72886         0.476302      0.314176     -1.883501
O      13.36202      5.70630     13.55416         0.483751      0.091835     -0.263191
O       2.12998      5.72309      4.87931        -0.770490     -0.064137      0.019371
O      13.48226      5.84316      4.97436        -0.437520      0.024063     -1.787652
O       1.98924      5.76864      9.28766        -0.360003     -0.081275      0.184110
O      13.38098      5.70685      9.36942         0.258726     -0.050628     -1.618397
O       1.94202      9.52513      0.51752        -0.008236     -0.121814      1.055214
O       2.04481      9.54986     13.67007         0.004122     -0.113674     -1.182248
O      13.53374      9.62999      0.59638         0.110309     -0.280792     -1.331382
O      13.45079      9.59466     13.55629         0.150099     -0.232340     -0.395110
O       1.96887      9.46955      4.96316         0.195959      0.410039     -0.616632
O      13.51771      9.43517      4.93766        -0.037644      0.174634      0.002935
O       1.79202      9.77025      9.36969         0.886344     -0.513583     -0.175118
O      13.44460      9.67725      9.25549         0.526720      0.028056      0.148611
O       5.84296      1.95815      0.54049        -0.492217      0.017518      0.366513
O       5.91414      1.71848     13.59268        -1.003865      1.375354     -0.634665
O       5.62012     13.44705      0.55204         0.034329      0.542833     -0.800093
O       5.85662     13.33264     13.57285        -0.210356      0.020407      1.044986
O       5.74810      1.97554      4.98762         0.222201     -0.198272     -1.349743
O       5.73422     13.41176      4.82078        -0.105811      0.125882      0.232569
O       5.53201      1.91988      9.52219         0.417012     -0.107442     -1.514699
O       5.79562     13.45296      9.34694         0.089225     -0.296513     -0.438003
O       5.80067      5.77087      0.57007        -0.079555     -0.234614     -0.218848
O       5.85670      5.67786     13.54922        -0.403119      0.266773     -0.107973
O       5.67932      5.71829      5.04944         0.355743     -0.082647     -1.056148
O       5.59365      5.64495      9.31611         0.273558      0.375815     -0.585795
O       5.88611      9.47060      0.49081        -0.242676      0.237640      0.073132
O       5.72735      9.62032     13.68141         0.215662     -0.098799     -0.107494
O       5.82133      9.73824      4.75930        -0.263926     -0.222973      0.459005
O       5.84124      9.57927      9.24398        -0.374888      0.092618     -1.585738
O       9.61313      1.90989      0.52915        -0.351281      0.253144     -0.464891
O       9.55941      1.94842     13.62639         0.186541     -0.180633     -1.341307
O       9.61645     13.46585      0.53052        -0.032035     -0.240204      0.788903
O       9.60826     13.30119     13.65390         0.105827      0.247352      0.274803
O       9.53936      1.99115      5.05890        -0.097247     -0.219653     -1.300856
O       9.77904     13.53919      4.92183        -0.420812     -0.138043     -2.094110
O       9.65448      1.85393      9.42292        -0.582556      0.237149     -2.004394
O       9.53065     13.37238      9.31940        -0.025554     -0.065359     -0.791991
O       9.70734      5.72860      0.58222        -0.444140      0.112748     -0.832259
O       9.56464      5.87646     13.55571         0.178626     -0.290142      0.586619
O       9.63787      5.70975      4.97729        -0.422365      0.213398      0.841600
O       9.66966      5.77475      9.34284        -0.102723     -0.001475     -2.598221
O       9.62593      9.62655      0.64893         0.062355     -0.008658     -0.278409
O       9.68650      9.53703     13.67761        -0.331410      0.324458     -1.298501
O       9.76503      9.61456      4.90689        -0.606137     -0.241302     -2.066939
O       9.61315      9.49909      9.14963        -0.577439      0.303624      0.100477
O       3.84660      1.95559      2.75990        -0.321420     -0.344691     -0.494487
O       3.81246      2.02992     15.82459        -0.171999     -0.550537     -0.401118
O       3.81513     13.48776      2.75613        -0.043039     -0.069815      0.009252
O       3.85807     13.47186     15.73999         0.380060     -0.181496      0.414138
O      15.31521      1.97761      2.56203         0.382551     -0.375214      0.452698
O      15.34967      1.85949     15.89425        -0.067827      0.352544     -0.044074
O       0.09962     13.40778      2.77868        -1.008617     -0.029984     -0.367841
O      15.32721     13.52904     15.80160        -0.210569     -0.535817      0.184248
O       3.74981      1.82268      7.04547         0.569467      0.415554      0.097348
O       3.88563     13.47088      7.09749        -1.110094     -0.204423     -0.063261
O      15.29201      1.85323      7.12473         0.379236      0.168227     -0.301702
O      15.33103     13.48004      7.09683        -0.530876     -0.460309     -0.334752
O       3.80077      2.06288     11.48945        -0.684858     -0.536348      0.473342
O       3.92576     13.48867     11.54661        -0.604022     -0.114965     -0.302976
O      15.32219      1.78268     11.36804        -0.119276      0.275624      0.568889
O       0.03920     13.43773     11.48254        -0.666718      0.330838      0.122561
O       3.84001      5.79799      2.70384         0.095598     -0.118848      0.146795
O       3.85057      5.77645     15.83164        -0.412127     -0.570453     -0.428819
O       0.01457      5.73475      2.85231        -0.214768     -0.072411     -0.192769
O      15.30389      5.83852     15.80455         0.126184     -0.594315     -0.262634
O       3.78354      5.74661      7.11629         0.324844      0.033160      0.341024
O      15.33941      5.76928      7.09465         0.112609      0.036034      0.008925
O       3.84015      5.62763     11.48248        -0.853004     -0.088878      0.317470
O       0.06527      5.68464     11.50615        -0.882819      0.428278     -0.037444
O       3.89184      9.57011      2.76853        -0.345970     -0.191041     -0.394225
O       3.88852      9.69047     15.94954        -0.181046     -0.750387     -0.602181
O       0.01868      9.57783      2.86126         1.908356      0.061720     -0.384480
O       0.03820      9.56714     15.71440        -0.663846     -0.366272      0.148514
O       3.90403      9.60521      7.02857        -0.591172     -0.229947      0.371695
O       0.07077      9.61686      7.08792        -0.630116     -0.421526      0.094087
O       3.90508      9.53693     11.48141        -1.316629      0.310207     -0.121599
O       0.09336      9.69796     11.44149        -0.651834     -0.593810      0.743542
O       7.68515      2.03258      2.76649        -0.458023     -0.669565      0.137361
O       7.67985      1.92153     15.85207        -0.305268      0.344830     -0.529638
O       7.67802     13.38777      2.66569         0.029853      0.209017      0.103118
O       7.61041     13.34924     15.94612         0.955875      0.897649     -0.327640
O       7.65421      1.90317      7.19767        -0.843724      0.016618     -0.017047
O       7.60908     13.36446      6.98139         0.260864     -0.000472      0.245589
O       7.66452      1.90828     11.54614         0.377406     -0.220129     -0.125606
O       7.75847     13.53984     11.60837        -0.387910     -0.761370     -0.923774
O       7.61025      5.62028      2.72920         1.075000      0.357375      0.258649
O       7.69446      5.73553     15.74780        -0.287217      0.119815      0.210416
O       7.70861      5.73881      7.24407        -1.006227     -0.085026     -0.249243
O       7.69370      5.89355     11.37197        -0.454280      0.067220      0.041908
O       7.66133      9.75218      2.81338         0.621939      0.110807     -0.320234
O       7.72489      9.62636     15.83957        -0.212053     -0.235407     -0.033857
O       7.68890      9.61543      6.89989        -0.460868     -0.014106      0.430828
O       7.61965      9.42101     11.31388         0.887344      0.301057      0.308988
O      11.42466      1.94445      2.69695         1.376731     -0.478039      0.202665
O      11.48541      1.91635     15.93208        -0.039299     -0.177804     -0.781399
O      11.54597     13.55140      2.72096        -1.561200     -0.702432     -0.122756
O      11.50408     13.40401     15.87924         0.128496      0.233409     -0.380100
O      11.47227      1.85259      7.11268        -0.361986     -0.116696     -0.155768
O      11.54045     13.42506      7.12308        -0.413138      0.000127     -0.514704
O      11.52112      2.02438     11.44784         0.115026     -0.089463      0.496579
O      11.63429     13.22132     11.49004        -1.553293      0.727131      0.011099
O      11.49567      5.78898      2.79594        -0.757958      0.245975      0.152117
O      11.50115      5.72050     15.81947         0.966680      0.413240     -0.134126
O      11.50970      5.63669      7.27980        -0.612373      1.145937     -0.981325
O      11.53036      5.70113     11.57844         0.284156     -0.192197     -0.540742
O      11.63701      9.71603      2.75761        -1.426362     -0.998926     -0.107224
O      11.58180      9.62731     15.74744         0.063919     -0.155981      0.387782
O      11.55525      9.62631      6.93062        -0.513556     -0.261056      0.602408
O      11.57058      9.67811     11.11539        -0.521970     -0.164074      1.311449
O       1.91661      3.86885      2.64322         0.193293     -1.437173      0.536359
O       1.88295      3.88581     15.98070         0.053086     -0.279218     -0.877343
O       2.00707     15.32219      2.63233        -0.417599      0.917560      0.086293
O       1.87704     15.30736     15.75886         0.514539      2.112546      0.374752
O      13.41542      3.81243      2.70811        -0.151906     -0.494159      0.489320
O      13.46577      3.84596     15.74459        -0.108744      0.199782      0.256801
O      13.48685     15.28796      2.71236        -0.177411      0.876260     -0.486723
O      13.39763     15.33258     15.76814        -0.124177     -0.233351      0.521109
O       1.86511      3.78892      7.10648        -0.039824     -0.015978     -0.385618
O       1.86354     15.31474      7.05931         0.230994      0.340228      0.143595
O      13.40890      3.84535      6.98070         0.206660     -0.476494      0.202643
O      13.42190     15.29539      7.15905        -0.279042     -0.128804     -0.614686
O       1.77295      3.75926     11.42760         0.628123      0.704584      0.243825
O       1.88142     15.35563     11.54233         0.763662      0.308958     -0.224826
O      13.49335      3.77742     11.49473         0.135335      0.189778      0.009104
O      13.34808     15.33625     11.42778         0.383175      0.176922     -0.241025
O       1.94708      7.65874      2.75559        -0.041668      0.229708     -0.015344
O       1.90499      7.62976     15.78896         0.340852      0.181325      0.079044
O      13.47357      7.69310      2.80713        -0.012033     -0.270740     -0.358226
O      13.41914      7.60752     15.72781        -0.290908      0.613317      0.099648
O       1.88263      7.65163      7.11174         0.366838      0.032011      0.157046
O      13.36841      7.69832      7.23322         0.440517     -0.582934     -0.270274
O       1.89064      7.68519     11.42755         0.254637     -0.527489      0.208414
O      13.51116      7.62133     11.45288         0.160239      0.774210     -0.014626
O       2.01315     11.46783      2.53571        -0.135429      0.402347      0.680436
O       1.90433     11.51566     15.66249        -0.070506     -0.211345      0.501915
O      13.55239     11.43872      2.93523        -0.903930      1.312286     -1.156144
O      13.47967     11.49522     15.82759        -0.054530     -0.170429     -0.472342
O       1.88266     11.50695      7.14540         0.736675     -0.048006     -0.311455
O      13.41982     11.49213      6.93507         0.172559      0.570559      0.158196
O       1.97028     11.63277     11.54393         0.318982     -1.117321      0.220457
O      13.53576     11.49994     11.54402         0.274658     -0.270442      0.069293
O       5.71882      3.86051      2.81369        -0.178630     -0.654853     -0.204938
O       5.76365      3.83341     15.70243        -0.040374     -0.220281      0.130574
O       5.78165      0.01324      2.79969         0.063838      0.533676     -0.330991
O       5.77101      0.00167     15.70124        -0.138009      0.520789      0.379172
O       5.67523      3.82107      7.11139         0.222156     -0.768906      0.418022
O       5.72263      0.00039      7.08448         0.255024      0.111370     -0.006980
O       5.91321      3.85176     11.46542        -0.278650     -0.473665      0.686688
O       5.78749     15.35612     11.59400        -0.424023     -0.075307     -0.379985
O       5.87132      7.71582      2.71751        -0.085902     -0.763152      0.175722
O       5.74166      7.67811     15.71638         0.134241     -0.794524      0.109453
O       5.76057      7.70716      7.05273         0.029742     -0.298667      0.305601
O       5.65479      7.64291     11.45880         0.053717     -0.294389     -0.137086
O       5.64882     11.53132      2.52175         0.101727      0.370387      0.386492
O       5.84266     11.55156     15.89433        -0.658473     -0.729434     -0.061138
O       5.63476     11.50337      6.96633         0.718893      0.386857      0.443697
O       5.75071     11.44269     11.50265         0.528909      0.522878     -0.519326
O       9.65021      3.81780      2.79544        -0.530291      0.744793     -0.214388
O       9.63210      3.87995     15.59535        -0.271534     -0.779416      0.425172
O       9.59748      0.03198      2.71444        -0.428029     -0.468358      0.223471
O       9.53207     15.33323     15.94746         0.413628      0.495733     -0.884209
O       9.49940      3.83672      7.28327         0.409162     -0.487531     -0.426417
O       9.44702     15.27488      7.05680         0.588006      0.230749      0.162205
O       9.48910      3.89699     11.46021         0.175640     -0.834892      0.215055
O       9.83623     15.33963     11.39448        -0.535754     -0.449143      0.158815
O       9.29830      7.73302      2.67590         1.398298     -0.679887      0.003371
O       9.63445      7.71234     15.75389         0.186709     -0.555781      0.677153
O       9.57818      7.65498      7.11821         0.074368      0.379050     -0.178667
O       9.78510      7.68367     11.41255        -0.700842      0.616349     -0.339478
O       9.70847     11.55962      2.80981        -0.317961      0.362322     -0.224433
O       9.57275     11.55664     15.88175         0.208157     -0.627826      0.077072
O       9.59856     11.47472      6.93420        -0.123605      0.509108      0.225631
O       9.53305     11.42089     11.43003        -0.043003      0.123369      0.003519
