  # total energy = -7877.69892930 
CRSYTAL
PRIMVEC
    15.2000000000000000    0.0000000000000000    0.0000000000000000
     0.0000000000000000   15.2000000000000000    0.0000000000000000
     0.0000000000000000    0.0000000000000000    17.000000000000000
PRESSURE
8.22931 8.59393 4.3575 0.003929 0.227449 0.100941
PRIMCOORD
320 1
Pb       3.90220      3.65051      4.16612         0.027646     -0.030715     -0.070207
Pb       3.63055      3.65260     16.85216         0.335367      0.212761      0.407269
Pb       3.97387     14.97542      4.08066        -0.513494      0.480706      0.710110
Pb       3.60605     15.15088     16.89280         0.597671     -0.033684      0.022092
Pb      15.18675      3.48073      4.18025         0.233086      1.027769      0.405825
Pb      15.08924      3.92199     16.97340         0.143479     -0.454984      0.305542
Pb      15.12272     14.91343      4.19888         0.308110      0.659155      0.188869
Pb      15.04829      0.00968      0.11132        -0.227266     -0.117564     -0.188604
Pb       3.48555      3.97043      8.53297         1.542331     -1.005221      0.998436
Pb       3.80769      0.04258      8.37807        -0.313369     -0.225153     -0.294366
Pb      15.19789      3.80907      8.43462        -0.449216      0.108348     -0.082828
Pb       0.08551      0.09962      8.19978        -0.112900     -0.802857      0.414280
Pb       3.72842      3.78990     12.70507         0.052562      0.293103      0.630717
Pb       3.75351      0.05933     12.73670        -0.043198      0.038486      0.462251
Pb      15.02306      3.99776     12.74665         0.776621     -0.634232      0.004449
Pb      15.06765      0.03999     12.68372        -0.061532      0.088968      0.193299
Pb       3.89722      7.44340      4.14619        -0.410754      0.470429     -0.177392
Pb       3.60524      7.48761     16.80188         1.064592      0.387542      1.454418
Pb      15.18485      7.46394      4.29591         0.938080      0.016431     -0.499369
Pb      14.98331      7.50951      0.13661         0.464179      0.425213      0.185679
Pb       3.80881      7.52871      8.57620        -0.091753      0.600512     -0.343387
Pb       0.10412      7.67405      8.47555         0.313934     -0.451607     -0.263788
Pb       3.78087      7.75327     12.84108        -0.177815     -0.430481      0.256610
Pb      15.19059      7.75954     12.84990         0.516196     -0.436712     -0.310956
Pb       4.07700     11.24434      4.13563        -0.797691     -0.407109      0.215156
Pb       3.67982     11.39680     16.78392         0.311394     -0.338325      0.335840
Pb       0.13972     11.22412      4.20846         0.130144      0.473371      0.077298
Pb      15.02529     11.35524      0.00211         0.373246      0.100806      0.674050
Pb       3.81211     11.41925      8.47279         0.245523     -0.347051     -0.328000
Pb       0.21908     11.41594      8.34666        -0.524034      0.380471      0.420257
Pb       3.89283     11.60894     12.65500        -0.617601     -1.152447      0.411054
Pb       0.05074     11.55925     12.79495        -0.222709     -0.614388     -0.377937
Pb       7.59981      3.85287      4.38477         0.113860     -0.650672     -0.542190
Pb       7.54489      3.76523     16.89129         0.664454      0.045642      0.293705
Pb       7.59117     15.13647      4.23494        -0.021889      0.604608     -0.194530
Pb       7.53312     15.19722     16.85061        -0.086968     -0.169469      0.543887
Pb       7.28979      3.72674      8.75534         0.373355      0.529496     -0.262117
Pb       7.56159      0.05852      8.66119        -0.028403     -0.234994     -0.689689
Pb       7.66431      3.79350     12.71487        -0.294500      0.022704      0.111738
Pb       7.48681     15.00259     12.74780         0.637025      0.932756      0.364843
Pb       7.49759      7.52344      4.08165        -0.012486      0.054924      0.103824
Pb       7.78097      7.52435      0.03922        -0.577315      0.140038     -0.245176
Pb       7.49362      7.51504      8.57938         0.366348      0.550219      0.308561
Pb       7.59444      7.64153     12.69829        -0.026970     -0.006177      0.073793
Pb       7.64744     11.49489      4.29717        -0.083844     -0.883872     -0.334895
Pb       7.41008     11.34781     16.96026         0.652256     -0.653094      0.201041
Pb       7.69331     11.32469      8.63754        -0.435170     -0.543491     -0.303701
Pb       7.70887     11.54246     12.77201        -0.583452     -0.829438      0.332006
Pb      11.24507      3.79824      4.41834        -0.154905      0.046357     -0.255179
Pb      11.27409      3.81168     16.92520         0.160669      0.234018      0.591361
Pb      11.29775     15.16107      4.27602        -0.266214      0.274297      0.017203
Pb      11.29908      0.16042      0.08470         0.258474     -0.557012     -0.071911
Pb      11.35286      3.83407      8.49738         0.418805      0.145278      0.162137
Pb      11.52816     15.16903      8.53698        -0.135587      0.308097     -0.543900
Pb      11.41629      3.82441     12.59615        -0.197859      0.031197      0.505695
Pb      11.39911      0.00672     12.60708        -0.181538      0.026282      0.512524
Pb      11.27248      7.39809      4.32161        -0.139531      0.520925      0.199641
Pb      11.46006      7.66332      0.06153        -0.242052     -0.368504     -0.151965
Pb      11.46987      7.62292      8.57792        -0.259203     -0.198907     -0.667172
Pb      11.56934      7.79291     12.80392        -0.527549     -0.844387      0.052849
Pb      11.37133     11.45315      4.28458        -0.634198     -0.627267     -0.133168
Pb      11.35338     11.29831      0.07245         0.302404     -0.110551     -0.135106
Pb      11.48463     11.32721      8.33741        -0.460260     -0.329074      0.565248
Pb      11.47609     11.43431     12.65989         0.143626      0.547653      0.939890
Ti       1.89097      1.69291      2.24704         0.389992      1.033783      0.630254
Ti       1.70822      1.82484     14.93045         1.139622      0.698667      0.315228
Ti       1.85095     13.17508      2.18056         0.266055     -0.511513      0.315288
Ti       1.68240     13.32740     14.97843         1.335500     -0.515171     -0.330169
Ti      13.20744      1.84041      2.33013         0.115645      0.205834     -0.626993
Ti      13.21014      1.88309     15.02026        -0.129618     -0.218189     -0.305957
Ti      13.16814     13.19295      2.30439         0.780159      0.819954     -0.405522
Ti      13.15105     13.33191     15.05770         0.554364     -0.363914      0.698689
Ti       1.99665      1.95704      6.34942         0.089837     -1.707175      0.798683
Ti       1.92928     13.29244      6.31781         0.143336     -0.257757      0.920903
Ti      13.25827      1.89053      6.39340         0.401059      0.058125      1.390102
Ti      13.19163     13.23189      6.39064         1.939714      0.544070      0.851350
Ti       1.90670      1.81253     10.70864        -0.909679      2.294949      0.142931
Ti       1.77484     13.38046     10.68098         0.578925     -1.291587     -0.811673
Ti      13.35170      1.94353     10.66874        -0.507383     -0.141103      0.900939
Ti      13.28800     13.24331     10.60794        -0.540542      0.238198      0.020744
Ti       1.90118      5.51513      2.22007         0.321521      1.327880      0.746192
Ti       1.85979      5.67768     15.03635         0.119513     -0.863689     -1.236884
Ti      13.28154      5.66799      2.37536        -0.295982     -0.800281     -0.601474
Ti      13.27628      5.67431     14.97759        -0.530266      1.077061     -1.417734
Ti       1.93585      5.68412      6.39112         0.005722      1.062914     -0.859624
Ti      13.33626      5.71505      6.50868        -0.147284     -0.266642      0.919459
Ti       1.88873      5.71748     10.88889        -0.283037      0.415743      0.355108
Ti      13.33869      5.75790     10.74574        -0.440258     -0.482646     -1.000744
Ti       1.87047      9.38891      2.17649         0.879331     -0.923045      1.455877
Ti       1.79941      9.50507     15.08418         0.605287     -0.262333      0.109271
Ti      13.24311      9.42176      2.53837        -0.024263      0.171075     -2.002321
Ti      13.29869      9.53573     15.03486        -0.695525     -0.294620      0.276387
Ti       1.97611      9.53507      6.38717         1.516533     -0.920537     -0.777324
Ti      13.39583      9.47878      6.40834        -0.604961     -0.702717      0.439265
Ti       1.95300      9.55601     10.78039        -0.670879     -0.257208      0.274012
Ti      13.39920      9.48800     10.69910         0.485913      0.939089      1.845246
Ti       5.67924      1.78919      2.06943         0.924477     -0.275063      1.666813
Ti       5.69356      1.84898     14.99424        -0.529542      0.223990     -1.241205
Ti       5.71374     13.16064      2.09120        -0.172713      0.280888     -1.043948
Ti       5.65995     13.20882     14.99719        -0.300271      0.860309      0.870442
Ti       5.74606      1.88624      6.50765        -0.793467      0.554193      0.236335
Ti       5.72642     13.23672      6.51963        -1.070803     -0.228248     -0.070471
Ti       5.66214      1.88181     10.77368         0.093943      0.349818      0.727162
Ti       5.57747     13.34156     10.68593         1.719194     -1.478779     -0.581465
Ti       5.68204      5.48653      2.05458         0.743018      0.664640      0.592559
Ti       5.70098      5.63572     15.09311        -0.201705      0.569715     -1.500372
Ti       5.67876      5.65729      6.60847         0.205012     -0.475851     -0.842178
Ti       5.63294      5.71911     10.94292         0.475256     -0.216480     -0.238238
Ti       5.63584      9.31003      1.96153         0.056935     -0.097970      0.113588
Ti       5.68163      9.35714     14.91813        -0.141698      0.854158      0.227558
Ti       5.75391      9.45194      6.53025        -0.562290      0.285718     -0.506523
Ti       5.68067      9.46164     10.78122        -0.033179      0.916691      0.337126
Ti       9.45925      1.90501      2.26751        -1.085923      0.686228      1.847449
Ti       9.50154      1.85955     14.89433        -0.262277      0.264784     -0.714424
Ti       9.44644     13.25879      2.11525        -0.574643     -0.247860      1.075828
Ti       9.47681     13.21775     15.18853         0.167253      0.750664     -1.955320
Ti       9.46737      1.89286      6.61894         0.341415      0.200243     -0.333532
Ti       9.39641     13.27234      6.61612         0.081394      0.447761     -0.293986
Ti       9.47499      1.92521     10.72952         0.140017      0.351217      0.378314
Ti       9.48356     13.29628     10.73122        -0.126545     -0.004217     -0.213512
Ti       9.48743      5.63380      2.23618        -0.452656     -1.033190      1.485819
Ti       9.54251      5.71877     14.87400         0.351130     -0.553407      0.594569
Ti       9.44008      5.71030      6.66755         1.040888     -0.310192     -0.925779
Ti       9.58477      5.77615     10.74829        -0.405432     -0.560246      0.675270
Ti       9.45930      9.41052      2.23212        -0.342358     -0.031569     -0.148665
Ti       9.48003      9.47311     14.94488        -0.860223     -1.115852      0.289162
Ti       9.50893      9.41270      6.42512        -0.082558     -0.098426     -0.454756
Ti       9.57293      9.57881     10.85248        -1.043373     -1.122929     -1.755302
O       1.86060      1.84841      0.46711        -0.240640     -0.662320      0.126992
O       1.84652      1.74096     13.17739        -0.144170      0.249938     -0.230060
O       1.78428     13.38698      0.40487         0.320298     -0.269342      0.223868
O       1.73298     13.36576     13.17360         0.204403      0.069981     -0.267803
O      13.19036      1.76899      0.50295         0.365847      0.303117      0.424683
O      13.17265      1.81804     13.24833         0.284629      0.020569     -0.044943
O      13.08811     13.30310      0.52716         0.514414     -0.444334      0.143581
O      13.27524     13.23029     13.32564        -0.153239      0.253105     -1.188774
O       1.96365      1.87382      4.63624        -0.092618      0.057227     -1.161251
O       1.95940     13.17700      4.59012        -0.108640     -0.097108     -1.268457
O      13.37195      1.83972      4.65777        -0.499312     -0.057202     -0.822114
O      13.23659     13.38650      4.61460        -0.599720     -0.745709      0.201626
O       1.96341      1.77429      8.94590        -0.277031      0.244667     -0.605780
O       1.86605     13.37798      8.88409        -0.151653     -0.234416      0.925723
O      13.44354      1.90585      8.93205        -0.204449     -0.125449     -0.742612
O      13.36268     13.29595      8.85345        -0.362834     -0.005869     -0.192490
O       1.83739      5.62178      0.44260         0.269333     -0.300669     -0.581755
O       1.84836      5.57565     13.25265        -0.169201      0.138981     -0.370669
O      13.36132      5.76367      0.55789        -0.433755     -0.442871     -0.347647
O      13.18455      5.78812     13.11245         0.454366     -0.437016      1.596127
O       2.02556      5.68348      4.61628        -0.420954     -0.345811      0.381825
O      13.36105      5.65554      4.74113        -0.017363      0.402060     -0.897120
O       1.94356      5.79367      9.10586        -0.187970     -0.224909     -0.968446
O      13.34865      5.60601      8.94248         0.536260      0.643097     -0.040238
O       1.86539      9.23748      0.44256        -0.055912      0.716964     -1.530417
O       1.74223      9.46573     13.35217        -0.323814      0.149222     -1.277036
O      13.27601      9.45340      0.67235        -0.031362      0.230256     -0.356282
O      13.39844      9.45829     13.27762        -0.270713      0.450653     -0.676118
O       1.98165      9.47641      4.60612        -0.168988      0.297964      0.352420
O      13.31908      9.45304      4.64675         0.184943     -0.169046     -0.493950
O       1.89125      9.66020      9.01988         0.089664     -0.635487     -0.780920
O      13.43564      9.47444      9.00480        -0.144087      0.127474     -2.121040
O       5.76689      1.71890      0.33065        -0.275040      0.500594     -0.996363
O       5.69846      1.91384     13.17253        -0.372609     -0.293352      0.726056
O       5.76911     13.20385      0.24939        -0.345148      0.069823      1.453439
O       5.57702     13.35105     13.22240         0.482063     -0.250152     -0.733513
O       5.85999      2.01236      4.76669        -0.401517     -0.050919     -0.266373
O       5.87085     13.03141      4.70556        -0.396270      0.568185      0.227483
O       5.73617      1.76026      8.98739        -0.085858      0.254414      0.027376
O       5.58879     13.25780      8.89776         0.565552      0.459512      0.328634
O       5.72838      5.62110      0.30846        -0.154945     -0.182615     -0.719855
O       5.64522      5.63296     13.26165         0.311648     -0.102293      0.289676
O       5.82017      5.58303      4.80860        -0.456042      0.105315      0.926168
O       5.62380      5.70110      9.12811        -0.047229      0.204237     -0.372704
O       5.52771      9.31914      0.18186         0.307802      0.543091      0.985010
O       5.71477      9.39624     13.10575         0.139249      0.302308      0.354419
O       5.71254      9.47480      4.73573         0.342012     -0.108313     -0.019563
O       5.56941      9.36254      9.00864         0.260628      0.198093     -0.288978
O       9.50622      2.07621      0.55556        -0.123912     -0.483268     -1.270901
O       9.55644      1.89802     13.09169        -0.105944     -0.291754      0.797595
O       9.37662     13.10443      0.36858         0.264159      0.386798     -0.165034
O       9.33747     13.41409     13.35601         0.730037     -0.490197      0.172775
O       9.50081      1.91035      4.82251        -0.108667     -0.294705      0.222758
O       9.31396     13.33196      4.80393         0.418495     -0.228188      0.393859
O       9.56906      2.02850      8.95348        -0.649510     -0.355469     -0.326821
O       9.41076     13.14967      8.97065         0.251950      0.181475     -0.692464
O       9.55536      5.58522      0.52991        -0.216029      0.077656     -1.935647
O       9.75001      5.71996     13.12022        -0.613348      0.260163      0.019659
O       9.62613      5.78024      4.78632        -0.754894     -0.402674      1.347188
O       9.62197      5.62292      8.99189        -0.211748      0.146331     -1.007388
O       9.42821      9.26137      0.40395         0.659061      0.645905      0.663860
O       9.47235      9.36622     13.14688        -0.062265      0.241657     -0.163311
O       9.48996      9.29011      4.59777        -0.098794      0.404581      1.085074
O       9.53205      9.64661      9.01478         0.476576      0.025478      0.847321
O       3.84802      1.70105      2.70808        -0.631170      0.201122     -0.776185
O       3.71841      1.84411     15.37714         0.178760     -0.474683     -0.535229
O       3.86249     13.21892      2.54033        -0.334172     -0.277433     -0.440931
O       3.71907     13.34487     15.29831         0.415483     -0.389785      0.039675
O      15.17490      1.72136      2.69678         0.428119      0.136383     -0.779028
O      15.09295      1.80699     15.34669        -0.430690     -0.191721      0.237777
O      15.14047     13.10784      2.49204         0.445646      0.588648      0.309306
O      15.09930     13.25244     15.35313        -0.993252      0.331324      0.461698
O       3.82333      1.80320      6.79437        -0.022695      0.676180      0.098430
O       3.85957     13.24107      6.73559         0.162530     -0.065016      0.206997
O       0.08734      1.89058      6.72534        -0.666265      0.122381      0.053464
O      15.19391     13.23734      6.61490        -0.352724      0.160921      0.222354
O       3.73102      1.93082     11.18653         0.863503     -0.643468     -0.284387
O       3.80427     13.31222     10.99603        -1.461242      0.538214      0.485821
O      15.17659      1.96221     11.08124         0.302999     -0.744829      0.204156
O      15.06680     13.35247     11.07772         2.239122      0.248125      0.149443
O       3.91966      5.63287      2.63372        -1.365313     -0.646694     -0.334092
O       3.71214      5.60577     15.36828         1.058365     -0.541888      0.065654
O       0.04932      5.65787      2.38236        -0.318976     -0.346934      1.219851
O      15.17277      5.74341     15.32482        -0.869496     -0.452005      0.458951
O       3.77874      5.60627      6.96823         0.413494      0.988192     -0.360524
O       0.11248      5.76725      6.84906        -0.487172     -0.480741      0.160191
O       3.77802      5.83450     11.30082        -0.132817     -0.956481     -0.314733
O      15.16403      5.76297     11.22714         0.657693     -0.016869     -0.130543
O       3.84669      9.33363      2.54091        -0.057501      0.345400     -0.104712
O       3.70088      9.55290     15.11325         0.444819      0.117814      0.838871
O       0.02963      9.47612      2.65562        -0.574113     -0.252710      0.064954
O      15.10269      9.52852     15.47201         0.526955     -0.253430      0.099343
O       3.84847      9.50905      6.81747        -0.480875      0.145014      0.293135
O       0.11372      9.67842      6.72953        -0.861362     -0.838119      0.194545
O       3.75993      9.54713     11.20997         0.320050     -0.180546      0.121819
O       0.06311      9.55923     11.18254        -0.762158     -0.356441     -0.028069
O       7.55620      1.96937      2.73474         0.343101     -0.576741     -0.776456
O       7.63828      1.91975     15.28593        -0.344507     -0.136601      0.065717
O       7.57651     13.19245      2.60882         0.344796      0.179949     -0.351859
O       7.60346     13.27531     15.32893        -1.012408     -0.016161      0.177078
O       7.60048      1.97971      6.99879         0.797610     -0.080217      0.181519
O       7.50971     13.29993      6.97237         1.880531      0.074279      0.231544
O       7.58386      1.96955     11.18956        -0.076568     -0.171870     -0.754869
O       7.58475     13.18432     11.21143        -0.496118      0.669839     -0.752822
O       7.57055      5.49318      2.63510        -0.378396      0.203974     -0.268070
O       7.64445      5.71131     15.35041        -0.527523     -0.299567     -0.462899
O       7.61736      5.52870      7.09044        -0.373968      0.651694     -0.426965
O       7.60265      5.73668     11.15596         0.127215     -0.172999     -0.087471
O       7.55707      9.33466      2.36435         0.006175      0.003953      0.343951
O       7.51887      9.23686     15.34606         1.018304      0.455318     -0.253091
O       7.67847      9.45822      6.89655         0.128948     -0.362624      0.085835
O       7.53417      9.49006     10.96585         1.575103      0.024489      0.537350
O      11.36353      1.85112      2.67372         0.266480     -0.397164      0.148379
O      11.32583      1.87675     15.38598         0.214422      0.371276      0.194522
O      11.30043     13.25555      2.68041        -0.585452      0.059452     -0.056977
O      11.36886     13.24486     15.53098        -1.636452     -0.763208     -0.250479
O      11.43788      1.88693      6.84938         0.255586     -0.260357      0.118088
O      11.40262     13.32230      6.97223        -0.680324     -0.451230     -0.603384
O      11.36379      1.88819     10.96514         0.612483     -0.030986      0.286320
O      11.37682     13.22053     11.14109         0.080333      0.352561     -0.478133
O      11.35066      5.73908      2.60810         1.877939     -0.441289      0.263079
O      11.47508      5.68454     15.43748        -0.818849      0.013916     -0.186428
O      11.48276      5.82652      6.93399         0.036043     -0.035190     -0.125951
O      11.47531      5.59098     11.03090        -0.624985      0.759691     -0.141613
O      11.34783      9.35936      2.54227         0.103288      0.186271      0.436872
O      11.30767      9.49070     15.30816         0.992669      0.053210      0.313244
O      11.48415      9.42014      6.74930        -0.667726      0.076980      0.427366
O      11.45024      9.67757     11.23696         0.477386     -1.020759     -0.895534
O       1.96077      3.63508      2.61891        -0.103345      0.286499     -0.357461
O       1.82422      3.71950     15.35704        -0.498347     -0.348011      0.056855
O       1.93840     15.05412      2.65779        -0.264646     -0.072648     -0.357428
O       1.75724     15.14898     15.30463         0.236649      0.851697      0.527299
O      13.30341      3.76270      2.67031         0.135831     -0.466032     -0.215859
O      13.28008      3.80125     15.30479         0.225974     -0.348019      0.088270
O      13.29987     15.11029      2.64384        -0.326709      0.152574     -0.135050
O      12.99992     15.16362     15.41585         1.224186      0.750269     -0.036822
O       2.01552      3.78117      6.81649        -0.908240      0.489220     -0.172781
O       2.03675     15.11323      6.66939        -0.675851      1.193827      0.361666
O      13.35780      3.81777      6.79568         0.177218     -0.548422      0.076874
O      13.24502     15.16434      6.77629         0.366849      0.213006      0.051854
O       1.86422      3.82266     11.00613         0.199860     -0.542633      0.373639
O       1.95924      0.01081     11.00147        -0.451031     -0.925885      0.671412
O      13.35114      3.86601     11.05078        -0.044668     -1.605554      0.235745
O      13.21636     15.17113     11.12582         0.153873      0.458015     -0.544183
O       1.95105      7.50279      2.60959        -0.199665     -0.523289      0.068961
O       1.92431      7.51042     15.28462        -0.738915      1.294063     -0.158122
O      13.40932      7.55382      2.62189        -0.086697     -0.499664      0.613139
O      13.25158      7.63618     15.31731         0.050425     -0.386634      0.404238
O       1.98802      7.61083      6.69344        -0.331246      0.007884      0.650219
O      13.42877      7.63314      6.90930         0.434977      0.084346     -0.063212
O       1.91202      7.60993     11.13831        -0.340499      1.007926      0.210037
O      13.30143      7.61897     11.06393        -0.269853      0.902428      0.070717
O       1.89580     11.26523      2.43404         0.431577      1.156966      0.002678
O       1.81532     11.43126     15.33921        -0.271119     -0.247443      0.287728
O      13.22431     11.35317      2.80814        -0.296728      0.018474     -0.321670
O      13.23522     11.38726     15.50908        -0.313645     -0.071814     -0.126576
O       2.01237     11.43140      6.83867        -0.123139     -0.267865     -0.008942
O      13.26234     11.31369      6.75602        -0.117191      1.433454     -0.121458
O       1.93272     11.47630     11.06526        -0.416012      0.640881      0.404203
O      13.39350     11.41486     11.07695        -0.490843     -0.116602      0.160400
O       5.61601      3.59557      2.42133        -0.194597      1.601736      0.154031
O       5.67388      3.73924     15.35731        -0.023477     -0.027372      0.077184
O       5.70468     15.09776      2.38715         0.554472     -0.733478      0.662960
O       5.77657     15.18030     15.25904        -0.265072     -0.442646      0.059308
O       5.65638      3.79813      7.02700        -0.062531     -0.041375      0.064003
O       5.70173      0.05090      6.71366         0.503038     -1.917467      0.434002
O       5.61436      3.73498     11.06852         0.232209      0.972036      0.142126
O       5.77788      0.00515     11.03396        -0.342860     -0.613818      0.265253
O       5.72092      7.40427      2.41734         0.281475      0.987915      0.302573
O       5.52266      7.57913     15.22380        -0.130629     -1.601582      0.005218
O       5.67373      7.59456      6.93291         0.401655     -1.629984      0.177897
O       5.67440      7.58715     11.16005        -0.088880      0.150191      0.124643
O       5.69291     11.26198      2.46535         0.407633      0.129871     -0.539019
O       5.75620     11.34363     15.40014        -0.713059      0.056668     -1.088191
O       5.82665     11.25906      6.92165        -0.337760      1.994082      0.136089
O       5.64740     11.39630     11.10916         0.016750      0.621716     -0.103092
O       9.57192      3.78117      2.73488         0.083137     -0.525080      0.277809
O       9.52554      3.80491     15.35171        -0.080246     -0.299362     -0.459232
O       9.40114     15.19297      2.68573         0.329383     -0.858848     -0.679110
O       9.50937     15.19924     15.52616        -0.084947      0.131965     -0.660438
O       9.78526      3.84583      6.74250        -0.684247     -0.343790      0.234373
O       9.54291     15.18598      6.88755        -0.309500     -0.082850      0.512251
O       9.51509      3.87216     11.15428        -0.253038     -1.173174     -0.162211
O       9.36395     15.13658     10.95392         0.368189      1.101883      0.171171
O       9.49106      7.41899      2.65966        -0.603739      2.316856     -0.247406
O       9.54469      7.47918     15.41187         0.189895      0.967326     -0.307157
O       9.53479      7.56888      7.03025        -0.203400      0.477233     -0.138833
O       9.59508      7.63872     10.95036         0.113753      0.399717      0.453217
O       9.48339     11.34151      2.50594         0.241705      0.050443      0.244720
O       9.32274     11.27536     15.20480         0.253323      0.911069      0.568173
O       9.54054     11.35770      6.73969         0.036071      0.042957      0.207454
O       9.48958     11.43507     11.20286        -0.169586     -0.306802      0.396283
