  # total energy = -7883.25777675 
CRSYTAL
PRIMVEC
    15.3600000000000000    0.0000000000000000    0.0000000000000000
     0.0000000000000000   15.3600000000000000    0.0000000000000000
     0.0000000000000000    0.0000000000000000    17.440000000000000
PRESSURE
0.845229 0.666942 -4.12524 0.283565 0.448253 -0.015666
PRIMCOORD
320 1
Pb       3.81365      3.75090      4.37172         0.286551      0.335316      0.036318
Pb       3.81155      3.73494     17.40679         0.220224      0.435281     -0.137698
Pb       3.76540     15.29194      4.39849         0.038287     -0.087489     -0.466566
Pb       3.70348     15.29658     17.32238         0.508034     -0.099374      0.035733
Pb       0.06701      3.73308      4.32497        -0.383164      0.202565      0.108712
Pb       0.11821      3.85720      0.01991        -0.501762     -0.001059     -0.021984
Pb       0.05776     15.30553      4.28639        -0.206299     -0.204912     -0.089803
Pb      15.21729     15.26187     17.41677         0.082529     -0.089738      0.477473
Pb       3.72741      3.83113      8.75529         0.084216      0.493023     -0.185555
Pb       3.84903      0.02809      8.68268         0.039025     -0.101540      0.001038
Pb      15.21651      3.97207      8.70200         0.508730     -0.140318      0.134511
Pb      15.19428      0.07074      8.76340         0.282781     -0.134809     -0.302689
Pb       3.78892      3.76298     12.94515         0.046610     -0.028285      0.202908
Pb       3.71082     15.34945     12.89716         0.440695      0.345286      0.342175
Pb       0.04008      3.73114     13.11137         0.121447      0.096323     -0.516072
Pb      15.34276     15.28974     13.02514         0.006093      0.214050     -0.028449
Pb       3.83260      7.64467      4.32043         0.104926      0.070895      0.471219
Pb       3.73627      7.53476     17.35583         0.068344      0.545973      0.480470
Pb       0.09781      7.80291      4.30708        -0.411494     -0.490642      0.177525
Pb      15.19022      7.61774     17.37904         0.842499      0.341980      0.476159
Pb       3.84443      7.72417      8.72312        -0.204238     -0.358882     -0.657686
Pb      15.34148      7.66512      8.70681         0.461777      0.085988     -0.301390
Pb       3.79043      7.55814     12.97011         0.351822      0.436666      0.377691
Pb      15.35439      7.57980     13.13669        -0.077838      0.257017     -0.272968
Pb       3.78199     11.54501      4.32011        -0.334268     -0.233360      0.204698
Pb       3.85813     11.51108     17.34592        -0.404570     -0.319494     -0.013256
Pb      15.29379     11.57709      4.30548         0.470456      0.047134      0.152850
Pb      15.23031     11.53925     17.30548         0.218328     -0.080692      0.570988
Pb       3.82956     11.52660      8.71446         0.399378     -0.101300     -0.005756
Pb      15.26379     11.43020      8.74766         0.062115      0.258267     -0.433789
Pb       3.84314     11.43374     12.97198         0.493109      0.114669      0.624558
Pb       0.13845     11.52403     13.06584        -0.322076     -0.242479      0.284997
Pb       7.72501      3.66704      4.34522        -0.457598      0.647937      0.135401
Pb       7.56304      3.81509      0.01838         0.121411     -0.228323     -0.313431
Pb       7.75631     15.29229      4.39084        -0.522046     -0.348402      0.192001
Pb       7.56910     15.33783     17.39962         0.132940      0.244652     -0.045223
Pb       7.65211      3.86828      8.64482        -0.120494     -0.002938      0.245523
Pb       7.64695     15.32698      8.65817        -0.108378      0.030600      0.264745
Pb       7.81196      3.95827     13.08929        -0.291779     -0.025496     -0.184221
Pb       7.55993      0.17831     12.97266         0.650796     -0.798552      0.090464
Pb       7.71603      7.55700      4.31640        -0.204189      0.181195      0.252323
Pb       7.52982      7.72254     17.41862         0.296906      0.027841     -0.348716
Pb       7.67074      7.71259      8.68570         0.244021      0.058803     -0.161642
Pb       7.61271      7.67900     12.96904         0.315049      0.013765      0.274809
Pb       7.70426     11.44771      4.37487        -0.152526     -0.005668     -0.107070
Pb       7.59326     11.53142     17.40626         0.529942     -0.445260     -0.137751
Pb       7.63391     11.55644      8.66615         0.357066     -0.030184     -0.381277
Pb       7.70766     11.50751     12.96171         0.011714      0.307063      0.439519
Pb      11.43280      3.73794      4.26143         0.610052      0.832024      0.608009
Pb      11.63316      3.80421      0.06210        -0.150347     -0.024678     -0.319388
Pb      11.52358     15.22279      4.33022         0.814325      0.268788      0.839686
Pb      11.35035     15.25625      0.05585         0.688311      0.081175     -0.357181
Pb      11.38718      3.96561      8.67641         0.318012     -0.351124     -0.049032
Pb      11.46284     15.35885      8.67163         0.157433      0.116414      0.148050
Pb      11.59489      3.71914     13.20101        -0.050469      0.215460     -0.259202
Pb      11.54993     15.34218     12.99059        -0.527556     -0.243868      0.713160
Pb      11.46668      7.66875      4.22497         0.439469     -0.135262      0.102034
Pb      11.50037      7.63605      0.03754        -0.279013      0.174361     -0.272975
Pb      11.52433      7.70004      8.67766        -0.067274     -0.049049      0.061109
Pb      11.43626      7.61680     13.10963         0.102075     -0.026774      0.140031
Pb      11.55542     11.44856      4.27365         0.263290     -0.159523      0.105968
Pb      11.34774     11.45558     17.40155         0.367911     -0.003039     -0.042101
Pb      11.58287     11.51768      8.66266        -0.394045     -0.013796      0.011769
Pb      11.54663     11.46790     13.02427        -0.219203      0.186163      0.189911
Ti       1.92626      1.90644      2.29309        -0.121608     -0.466291      0.072355
Ti       1.90560      1.87063     15.44869        -0.119083      0.345816     -2.343421
Ti       1.91467     13.36060      2.25355        -1.576653      0.489510     -0.417016
Ti       1.87755     13.41797     15.35040         0.164412      0.006887     -0.075931
Ti      13.46681      1.86609      2.36122        -0.086417     -0.131933     -1.316889
Ti      13.42482      1.86405     15.53397        -0.333004      0.338005      0.601702
Ti      13.34520     13.36777      2.31186         1.720851      0.306165     -1.317965
Ti      13.40296     13.46175     15.34093        -0.831599      0.167255     -0.630577
Ti       1.89936      1.89854      6.66619        -0.370021     -0.324934     -0.664539
Ti       1.91893     13.38263      6.76712        -0.429367      0.605211     -1.441167
Ti      13.49964      2.01964      6.69529        -1.064825     -0.493947     -1.445700
Ti      13.48739     13.47165      6.70522        -0.403261     -0.171049     -0.856646
Ti       1.87523      1.90999     10.96696         0.363274      0.913366     -0.360788
Ti       1.95836     13.43610     10.95353        -0.332676      0.157428      0.072869
Ti      13.40649      1.87105     11.05084         0.485443      0.855394     -0.685535
Ti      13.50149     13.36994     11.09943        -1.002596      0.335127     -1.195758
Ti       1.92830      5.74104      2.36007        -0.479041      0.175915     -1.412766
Ti       1.88152      5.73761     15.36455         0.153483      0.603009     -0.563455
Ti      13.47983      5.68066      2.32592         0.238597      1.265842      0.652676
Ti      13.45436      5.79145     15.35356        -0.882326     -1.121567     -1.001067
Ti       1.90523      5.69684      6.60385         0.781815      1.166468      0.196721
Ti      13.50001      5.81616      6.62729        -1.122548     -0.142229     -1.392474
Ti       1.93731      5.79212     11.04618        -0.672531     -1.088092     -1.580260
Ti      13.44934      5.76144     11.12376         0.118905     -0.285372     -0.350708
Ti       1.97436      9.55684      2.23531        -0.738689      1.444776     -0.737675
Ti       1.91419      9.58670     15.45427         0.065819     -0.118337     -0.856212
Ti      13.56457      9.52023      2.31968        -1.743312      0.573755     -0.604731
Ti      13.39376      9.58166     15.38107         0.378965      0.325582     -0.896411
Ti       1.93365      9.63477      6.78798         0.487371     -0.786901     -0.616712
Ti      13.48896      9.56644      6.65230        -0.364850      0.726412     -1.661574
Ti       1.95381      9.61853     11.05246         0.063818     -0.155225     -2.057411
Ti      13.51299      9.56776     11.13866        -0.653629     -0.821124     -0.702045
Ti       5.76240      1.81972      2.42518        -0.044005      0.474622     -0.047445
Ti       5.76637      1.89109     15.27856        -0.017421     -0.177199      1.562262
Ti       5.75162     13.36166      2.33063        -0.163671      0.579036      1.223188
Ti       5.73665     13.41773     15.30162        -0.019137      0.325286     -2.428253
Ti       5.73593      1.97199      6.64911        -0.522030     -0.008955     -0.277200
Ti       5.71822     13.48471      6.65458         0.118118     -0.237860     -0.742942
Ti       5.78933      1.97556     10.99009        -0.425645     -0.267820      0.380612
Ti       5.78637     13.41901     11.05853         0.126002      0.650990     -1.355052
Ti       5.74376      5.68517      2.34591        -0.324202     -0.367870     -0.815170
Ti       5.71321      5.74717     15.43453         0.499172     -0.165510     -1.469552
Ti       5.77032      5.75719      6.72950        -0.614683      0.790006     -0.545005
Ti       5.81577      5.74315     11.03411        -0.506629     -0.845667     -1.724327
Ti       5.75797      9.50051      2.37873         0.110758      0.597267     -0.944171
Ti       5.72337      9.65623     15.34214         0.396593     -0.765977     -1.723914
Ti       5.81404      9.61795      6.68847        -0.169316     -0.572381     -0.987308
Ti       5.81206      9.59375     11.03704        -0.306135     -0.123194     -0.445858
Ti       9.62973      1.86741      2.40967        -0.213329     -0.249938     -0.928045
Ti       9.62732      1.97194     15.47919         0.198716     -0.145751     -1.254887
Ti       9.56820     13.45780      2.33154         0.116272     -0.453370     -0.330935
Ti       9.48567     13.51362     15.34403         1.283525     -0.723223     -1.553837
Ti       9.60486      1.89227      6.67715         0.507518      0.384307      0.225204
Ti       9.65851     13.44300      6.68383        -0.814293     -0.652423     -0.655504
Ti       9.64803      1.97905     11.08394        -1.037792     -1.058954     -1.412717
Ti       9.60883     13.46659     11.08338         0.283838      0.322443      0.089253
Ti       9.56989      5.71073      2.23186         0.375709      0.690243     -0.473381
Ti       9.57886      5.78251     15.53706         0.133414      0.033148     -0.469778
Ti       9.61087      5.76883      6.64384        -0.150331      0.276723     -0.802069
Ti       9.65779      5.77526     10.98079        -0.201550      0.282703     -0.676898
Ti       9.59668      9.65064      2.35426         0.655850     -0.291324     -2.031551
Ti       9.54411      9.57984     15.37614         0.184196      0.129214      0.689069
Ti       9.72575      9.56095      6.62742        -0.975420      0.546408      0.440695
Ti       9.68216      9.58657     11.00464        -0.005500      0.079418     -1.546009
O       1.83662      1.99773      0.50198         0.634224     -0.072323     -0.385857
O       2.08546      1.90335     13.49824        -1.018830     -0.022144      2.433003
O       1.82319     13.45978      0.44361         0.537378     -0.098852      0.574345
O       1.83909     13.47822     13.56580         0.022408      0.057240      0.211122
O      13.31369      1.96651      0.51560         0.667407     -0.157780      1.535344
O      13.41566      1.87264     13.79679        -0.205195      0.157650     -1.523876
O      13.50340     13.47596      0.47787        -0.222875     -0.369258      1.090614
O      13.49780     13.52926     13.51097         0.111553     -0.120631      0.854607
O       1.83237      1.89184      4.79976         0.176681      0.042615      1.477944
O       1.88419     13.34182      4.90035         0.554038      0.292704      1.235115
O      13.61715      1.97130      4.87185        -0.516000     -0.118554      1.031388
O      13.37538     13.45972      4.89473         0.079186     -0.021042      0.683607
O       1.95424      2.03852      9.17648        -0.292498     -0.365181      0.292829
O       1.90913     13.33672      9.21661        -0.197383      0.169062     -0.302772
O      13.45418      1.94012      9.26180        -0.015462      0.058313      0.755193
O      13.43863     13.41024      9.24246         0.282734     -0.121704      1.343765
O       1.98500      5.72765      0.50668        -0.096078     -0.079688      1.190786
O       1.84418      5.68014     13.54203         0.308584      0.444949      0.787995
O      13.47926      5.82378      0.56381        -0.142071     -0.434388     -0.528675
O      13.41895      5.90649     13.51124         0.202481     -0.778292      1.536304
O       1.91250      5.75577      4.80417         0.100167      0.156232      0.353399
O      13.36942      5.82120      4.85005         0.209233     -0.017971      0.637805
O       1.96243      5.62515      9.18618        -0.485296      0.580667      1.737872
O      13.47883      5.67748      9.29050         0.056770      0.398359      0.824924
O       2.07016      9.65504      0.46170        -0.123621      0.022256      0.212775
O       1.94312      9.64188     13.63188         0.126457     -0.137603      0.516051
O      13.56939      9.58725      0.51258        -0.338929     -0.106568     -0.006069
O      13.41850      9.59518     13.57338         0.114147     -0.166686      1.020535
O       1.93488      9.73177      4.99761        -0.076542     -0.298605      0.347262
O      13.49975      9.62018      4.81618        -0.204279     -0.176597      1.127955
O       1.99094      9.58707      9.09293        -0.453755      0.154386      2.694913
O      13.44155      9.59220      9.30622         0.247817     -0.085093      0.862715
O       5.83272      1.83539      0.64416        -0.214078      0.037283      0.338164
O       5.76400      1.86875     13.55438        -0.051332      0.302561     -0.503871
O       5.79020     13.41576      0.58524        -0.168105      0.050597     -0.202095
O       5.85506     13.36585     13.44321        -0.388117      0.190707      1.314604
O       5.71434      2.04711      4.84155         0.175622     -0.621260      1.008248
O       5.65680     13.52647      4.83025         0.064140     -0.241712      0.822231
O       5.67589      1.93939      9.25187         0.093928      0.090745     -0.758891
O       5.75717     13.43624      9.18303         0.271299     -0.036609      1.608936
O       5.68359      5.76234      0.51847         0.119726     -0.310754      0.512483
O       5.75559      5.65345     13.59810         0.075299      0.394871      1.277367
O       5.73108      5.82193      4.92828         0.080865      0.091728      0.443858
O       5.80102      5.64980      9.20436        -0.178554      0.496938      1.265227
O       5.84284      9.63074      0.54240        -0.251820     -0.193990      1.434301
O       5.75941      9.66203     13.48102        -0.060865     -0.121816      1.241772
O       5.80798      9.44408      4.85084        -0.121448      0.416478      1.083948
O       5.82355      9.67209      9.24763        -0.000158     -0.201136      0.482490
O       9.50075      1.86304      0.64582         0.267134     -0.193523      0.070463
O       9.67593      1.93211     13.60831        -0.152796      0.462814      1.713145
O       9.56573     13.53724      0.54917        -0.095537     -0.436362      0.107928
O       9.51397     13.52819     13.49956         0.091283     -0.329991      1.996610
O       9.62127      1.91862      4.86706        -0.136386     -0.093308      1.047915
O       9.57881     13.56544      4.86692         0.298945     -0.607618      0.802934
O       9.54288      1.94073      9.26966         0.472044      0.083589      0.626443
O       9.58199     13.46449      9.32054         0.057044      0.106415     -0.589177
O       9.65766      5.88127      0.41088        -0.594521     -0.438472      1.784813
O       9.52769      5.80012     13.73215        -0.130725     -0.331523     -0.202978
O       9.63118      5.71351      4.83129        -0.185757      0.091351      0.556228
O       9.67539      5.80724      9.17960        -0.177295     -0.246831      0.929783
O       9.64397      9.70577      0.43862        -0.328560     -0.436316      2.145767
O       9.63281      9.62045     13.60908        -0.261185     -0.143745      0.042545
O       9.70933      9.61598      4.84934        -0.279960      0.287152     -0.283199
O       9.76880      9.62129      9.14738        -0.224663     -0.277032      1.677934
O       3.80732      2.00803      2.79720         0.181068     -0.207654     -0.601389
O       3.85355      1.85736     15.72474        -0.616277      0.320372      0.504383
O       3.74006     13.31857      2.63808         1.712757      0.247926      0.076079
O       3.84164     13.54972     15.58791        -0.520226     -0.286684      0.723567
O       0.02582      1.85427      2.67504        -0.435664      0.012483      0.007493
O      15.33050      1.98918     15.74477         0.753500     -0.206285      0.273672
O      15.32931     13.45591      2.78472         0.230922      0.237608     -0.340941
O       0.00335     13.51379     15.79846         0.000313     -0.119916     -0.455476
O       3.76790      2.02044      7.00059         0.391574     -0.401886     -0.054472
O       3.81456     13.47241      7.12228         0.341114     -0.121859     -0.121962
O      15.29150      1.90304      7.07639         1.236514      0.045787      0.396167
O      15.33349     13.33436      6.93216         0.381213      0.412408      0.694529
O       3.84396      1.89814     11.44621        -0.000405     -0.087683     -0.464176
O       3.81779     13.56985     11.26173         0.541717     -0.435251      0.298483
O      15.34513      1.89972     11.43955        -0.266197      0.516510      0.039718
O       0.00035     13.37038     11.44797         0.539833     -0.009776     -0.190002
O       3.82391      5.60234      2.70159        -0.043603      0.512230      0.236349
O       3.77816      5.80644     15.78654         0.417013     -0.454393     -0.294288
O       0.03077      5.97387      2.63087        -0.450312     -0.797179      0.197931
O       0.02580      5.73577     15.77644        -1.339753      0.298013     -0.139331
O       3.81444      5.79858      7.13571         0.291572     -0.097104     -0.452536
O      15.35509      5.79720      7.02399         0.012209      0.207929      0.245686
O       3.78057      5.75948     11.45292         0.679205      0.183806     -0.126317
O       0.05919      5.67329     11.48430        -0.442554      0.278922     -0.171131
O       3.76294      9.65217      2.74304         1.844980     -0.114813      0.004171
O       3.92446      9.57953     15.77845        -1.130674      0.329864      0.188869
O      15.33901      9.50062      2.66176         1.329027      0.374193      0.190543
O       0.05069      9.53978     15.81619        -0.909741      0.574703     -0.318941
O       3.86626      9.52685      7.07821         0.690307      0.434744     -0.000149
O      15.34328      9.61230      7.05927         0.231001     -0.000838      0.486431
O       3.83886      9.58802     11.40972        -0.046093     -0.295435     -0.015743
O       0.05700      9.66633     11.48047         0.220761      0.027970     -0.368065
O       7.74310      1.72732      2.82683        -0.355205      0.194313     -0.039952
O       7.66539      1.98049     15.74053         0.242880     -0.307248      0.147818
O       7.72797     13.53809      2.73699        -0.998976     -0.076833     -0.012988
O       7.63497     13.34835     15.77060         0.445751      0.265382      0.087963
O       7.57515      1.91683      7.16751         1.060867     -0.019946     -0.821389
O       7.60200     13.46662      7.02074         1.057060      0.178643      0.146651
O       7.67185      1.99049     11.39764         0.730928      0.048168      0.294570
O       7.72130     13.45456     11.43471        -0.669862     -0.427839     -0.442324
O       7.62631      5.79167      2.59481         1.130487     -0.068722      0.136440
O       7.61616      5.65099     15.80807        -0.167824      0.324194      0.310464
O       7.68513      5.83727      7.16536         0.218918     -0.220020     -0.476250
O       7.66746      5.75694     11.36878         0.981647     -0.157069      0.418064
O       7.68647      9.53957      2.77383        -0.519033      0.115096     -0.158575
O       7.61840      9.72796     15.75553         0.483743     -0.574233      0.042727
O       7.75669      9.54491      7.06132        -0.261958      0.793528     -0.104281
O       7.69802      9.67768     11.43438         0.248114     -0.540512     -0.367255
O      11.53195      1.97213      2.79498         0.527047     -0.081715     -0.326293
O      11.50239      1.82755     15.96097        -0.771147      0.366945     -0.306482
O      11.50601     13.28551      2.64305         0.237792      0.153032      0.251823
O      11.48726     13.45241     15.68724        -0.114834     -0.036359      0.089672
O      11.54394      1.89294      7.07317        -0.893732      0.533960     -0.216014
O      11.47087     13.49737      7.10248         0.852529     -0.061868     -0.002607
O      11.50361      1.92519     11.55387         1.398390     -0.027413     -0.401421
O      11.57116     13.48798     11.55431         0.476020     -0.475452     -0.595714
O      11.48475      5.64142      2.53398        -0.474909      0.158987      0.408178
O      11.45413      5.89087     15.77003         1.526212     -0.413788      0.077060
O      11.46008      5.75304      7.15850         0.730521      0.102292     -0.450502
O      11.49295      5.89002     11.35971         0.756015     -0.265264      0.196971
O      11.52585      9.73368      2.64482        -0.326502     -0.611794      0.142035
O      11.56382      9.52245     15.76421         0.053419      0.401374      0.080395
O      11.58990      9.62250      7.00012        -0.229519     -0.082613      0.255958
O      11.50207      9.36552     11.52450         0.777989      1.088664     -0.440231
O       1.76716      3.86083      2.64178         0.235035     -0.277399      0.070054
O       1.77032      3.92835     15.77067         1.233341     -1.737261      0.074992
O       1.97727     15.35945      2.61737         0.044445     -0.128356      0.237097
O       1.89423      0.04075     15.79955        -0.157244     -0.075405     -0.129507
O      13.53137      3.83046      2.75176        -0.029710     -0.216529     -0.312762
O      13.29721      3.85907     15.80254         0.249019      0.591659     -0.141209
O      13.41082     15.30978      2.65014        -0.268396      0.617966      0.249102
O      13.40979     15.33032     15.86459         0.259620      0.018031     -0.084872
O       1.84393      3.84817      6.92512        -0.041053     -0.635470      0.150239
O       1.93016     15.32416      7.10793        -0.309291      0.717606     -0.170956
O      13.45273      3.95490      7.01059        -0.089869     -1.222774      0.299611
O      13.42088      0.01783      7.20257         0.227806     -0.167799     -0.384155
O       1.97161      3.80961     11.34491        -0.184093      0.302382      0.376631
O       1.86723      0.02971     11.24959        -0.046891     -0.859555      0.368338
O      13.41692      3.86482     11.55477        -0.104081     -0.587852     -0.050718
O      13.57170     15.35643     11.35882        -0.560412     -0.086952      0.071932
O       1.85608      7.76939      2.68159         1.123112     -1.388516      0.215381
O       1.85503      7.72694     15.93473         0.564401     -0.946351     -0.885639
O      13.36045      7.66777      2.70254        -0.235385     -0.142508     -0.042981
O      13.47187      7.61845     15.70927         0.139435      0.934528      0.339246
O       1.94793      7.65342      7.10415        -0.505638      0.229157     -0.111094
O      13.40264      7.70943      7.07003         0.285877     -0.350330      0.255261
O       1.86964      7.74979     11.41360         0.205721     -0.737527     -0.075815
O      13.58618      7.65856     11.54117        -0.021222      0.022783     -0.532223
O       1.79535     11.51189      2.68276         0.215443     -0.376312     -0.103322
O       1.97201     11.54546     15.74748        -0.080470      0.141729     -0.009151
O      13.52886     11.50536      2.68614        -0.218718     -0.060156      0.023887
O      13.52617     11.59644     15.66551        -0.292932     -1.224246      0.071829
O       2.01623     11.54632      7.23306        -0.515590     -0.459622     -0.470527
O      13.43426     11.52248      7.08269        -0.127354     -0.019407      0.124939
O       2.05030     11.54705     11.50005        -0.688726     -0.235009     -0.595269
O      13.47574     11.41485     11.48530        -0.537864      1.291673     -0.120958
O       5.86248      3.79080      2.80856        -0.054054      0.023847     -0.420896
O       5.70855      3.76310     15.87565        -0.212070      0.457090     -0.254434
O       5.71543     15.34645      2.87842        -0.390568     -0.664796     -0.591266
O       5.77883     15.28309     15.73843         0.302302      0.990518      0.138150
O       5.73983      3.89900      6.99416         0.281340     -0.839623      0.195186
O       5.70457      0.02975      7.10426        -0.219394      0.549302     -0.340892
O       5.77315      3.87206     11.35361        -0.364676     -0.308902      0.453951
O       5.82505      0.03370     11.35661        -0.113288     -0.556027      0.058093
O       5.68387      7.57693      2.73994        -0.041761      1.185801     -0.241061
O       5.75687      7.71299     15.71256         0.372490     -0.724540      0.133729
O       5.87183      7.74605      7.25848        -0.864845     -0.410776     -0.582700
O       5.74703      7.61966     11.40938         0.001832      0.863661      0.094039
O       5.84117     11.47677      2.75940        -0.127974      0.328640     -0.155408
O       5.72891     11.56910     15.72146        -0.326300     -0.372212      0.446567
O       5.78306     11.57099      6.92995        -0.116055     -0.920056      0.311055
O       5.68831     11.47956     11.31656         0.201233      0.906471      0.261737
O       9.49882      3.76712      2.77145         0.138490      0.905344     -0.605561
O       9.67896      3.84354     15.95977        -0.258654     -0.561903     -0.467886
O       9.92248     15.26995      2.79798        -1.598874      0.963120     -0.808758
O       9.58859     15.33431     15.88190        -0.632183      0.363576     -0.394520
O       9.50161      3.88398      7.07733         0.387002     -1.191335     -0.215679
O       9.63583      0.00449      7.04622        -0.625077      0.671516      0.187699
O       9.73020      3.84895     11.42671        -0.430396      0.913502      0.238270
O       9.67889      0.02544     11.43055        -0.350629      0.319452     -0.076347
O       9.56842      7.72291      2.75144         0.443214     -0.997789     -0.616573
O       9.62531      7.70377     15.84481        -0.958800      0.452339     -0.025433
O       9.63994      7.69069      6.90334         0.192591     -0.057052      0.410886
O       9.58917      7.67735     11.37748        -0.797583     -0.206316      0.245951
O       9.58953     11.52639      2.67894        -0.684491      0.181054      0.377426
O       9.66491     11.45214     15.85297        -0.466296      1.118793     -0.625060
O       9.67068     11.55851      7.10229        -0.408854     -0.077271     -0.405973
O       9.74688     11.50246     11.34547        -0.189174     -0.276360      0.354795
