  # total energy = -7879.47408712 
CRSYTAL
PRIMVEC
    15.6000000000000000    0.0000000000000000    0.0000000000000000
     0.0000000000000000   15.6000000000000000    0.0000000000000000
     0.0000000000000000    0.0000000000000000    17.640000000000000
PRESSURE
-5.02563 -5.1091 -3.40062 0.143285 -0.569916 0.021397
PRIMCOORD
320 1
Pb       3.92524      3.90999      4.27914         0.219584      0.014752      0.113349
Pb       3.81050      3.71900     17.56996         0.479577      0.572451     -0.232823
Pb       4.01422      0.08249      4.41196        -0.175131     -0.558462     -0.115997
Pb       4.00034     15.55061     17.50946        -0.634008      0.240383      0.317744
Pb      15.59339      3.85636      4.30792        -0.649790      0.371455      0.068748
Pb      15.51951      3.76966     17.55720         0.819158      0.144657      0.263165
Pb       0.00543      0.01501      4.32280        -0.041052     -0.211923      0.267359
Pb       0.14682     15.52417     17.62786         0.195824      0.187525     -0.619579
Pb       3.91347      3.82859      8.74925         0.073436     -0.190706     -0.590481
Pb       3.86064     15.59455      8.75798         0.223343      0.005232      0.148430
Pb       0.04683      3.79096      8.70927         0.101407      0.244093      0.183317
Pb       0.06659      0.01508      8.92732        -0.887144     -0.043591     -0.176322
Pb       3.72438      4.07216     13.10082         0.800268     -0.313416      0.056639
Pb       3.89815      0.06533     13.20712        -0.234679     -0.164568     -0.286121
Pb      15.53931      3.82284     13.24848         0.194330      0.430631     -0.450377
Pb      15.59638     15.59878     13.16853        -0.313451     -0.247139     -0.103157
Pb       3.83706      7.80820      4.18014         0.425628     -0.237972      0.040430
Pb       3.77273      7.81178     17.57133         0.253370     -0.429466      0.176499
Pb      15.50386      7.69379      4.42866         0.318198     -0.561102     -0.261448
Pb      15.44151      7.77445      0.00700         0.575492     -0.170716      0.228986
Pb       3.81055      7.76179      8.76523         0.438864      0.182529     -0.344033
Pb       0.06227      7.81335      8.63414         0.632835     -0.260514      0.543592
Pb       3.86305      7.91039     13.17639         0.379567     -0.791442      0.265269
Pb      15.42140      7.82288     13.18824         0.250498     -0.314599     -0.162089
Pb       3.90467     11.60190      4.30630        -0.197827      0.676541      0.338757
Pb       3.89859     11.65279     17.54349         0.220681     -0.208892      0.079060
Pb       0.01143     11.60277      4.41842         0.241556      0.800248      0.139343
Pb       0.00458     11.55472      0.10644         0.081907      0.405718     -0.398280
Pb       3.91122     11.71899      8.65612        -0.493631     -0.060839      0.632993
Pb       0.03774     11.53852      8.79060         0.228056      0.188154     -0.717155
Pb       3.93636     11.54125     13.23104         0.048548      0.817260     -0.220056
Pb       0.12529     11.60535     13.25604        -0.376121      0.646160     -0.331888
Pb       7.80869      4.01220      4.30600        -0.223293     -0.163632     -0.334510
Pb       7.86705      3.80624     17.52367        -1.049302      0.414921      0.200520
Pb       7.99287      0.00359      4.36111        -1.289606     -0.128956      0.066595
Pb       7.85771     15.41317     17.61737        -0.176047      0.554300     -0.087034
Pb       8.02101      3.89728      8.68551        -0.987266      0.282383      0.425455
Pb       7.74541     15.55216      8.67005         0.171909     -0.154745      0.374322
Pb       7.61285      3.81642     13.09195         0.162749      0.216860     -0.172247
Pb       7.72435     15.49562     13.16933         0.282723      0.704472      0.151515
Pb       7.66582      7.82347      4.34196        -0.049643     -0.017883     -0.683571
Pb       7.80711      7.77065     17.49349        -0.054995     -0.066055      0.640934
Pb       7.89153      7.81473      8.75754        -1.108959     -0.195239      0.365226
Pb       7.86749      7.67861     13.18306        -0.610915     -0.189556     -0.375644
Pb       7.72134     11.66378      4.33504        -0.005139      0.081270     -0.413671
Pb       7.77222     11.73360     17.60032        -0.146392     -0.300378      0.228611
Pb       7.75840     11.62569      8.77508        -0.539989      0.171284      0.094519
Pb       7.77287     11.51695     13.21827        -0.404680      0.650438     -0.145113
Pb      11.60099      3.91540      4.32293         0.568554      0.283234     -0.305130
Pb      11.64728      3.94115     17.50665        -0.384720      0.070358      0.427754
Pb      11.79254      0.05047      4.36437        -0.093688      0.342038     -0.191623
Pb      11.82459      0.04167     17.52084        -1.062594      0.003523      0.386618
Pb      11.73584      3.89614      8.77005        -0.493460      0.316696      0.052243
Pb      11.56980     15.53774      8.82022         0.390830      0.280288     -0.016509
Pb      11.59943      3.86688     13.21377        -0.165396     -0.263856     -0.837670
Pb      11.73880      0.03652     13.22661        -0.113217     -0.231628     -0.103471
Pb      11.65153      7.86245      4.37678        -0.339128     -0.589499     -0.069210
Pb      11.83249      7.88736     17.62015        -0.842033     -0.487041     -0.010856
Pb      11.82347      7.76762      8.78057        -0.893517      0.002139     -0.047521
Pb      11.66390      7.87169     13.21106         0.112340     -0.192750     -0.551911
Pb      11.73506     11.77406      4.55044        -0.112968     -0.230832     -0.542407
Pb      11.59386     11.79259      0.10999        -0.263954     -0.185043     -0.522206
Pb      11.57014     11.75882      8.80393         0.293090     -0.038251     -0.326293
Pb      11.81370     11.68378     13.27459         0.005815      0.620992     -0.479830
Ti       1.97018      1.86423      2.41141        -0.575970      0.612360     -0.350723
Ti       1.92620      1.87743     15.47653         0.005342      0.325112      2.124035
Ti       1.84122     13.66158      2.28963         0.649139     -0.334484      0.201656
Ti       1.96051     13.50549     15.59819         0.309648      0.849120     -0.071364
Ti      13.63557      1.92928      2.25235        -0.258217      0.783122      1.442753
Ti      13.57539      1.98647     15.64785         0.690778     -1.279313     -0.648989
Ti      13.55571     13.62276      2.35409         0.954672     -0.130623      0.348185
Ti      13.77128     13.71959     15.56593        -0.393475     -0.382727     -0.324015
Ti       1.83464      1.90594      6.76077         0.544580      0.159626     -0.310336
Ti       1.76443     13.76210      6.87237         0.817156     -1.662682     -0.740442
Ti      13.44024      2.01816      6.73041         1.089887     -1.496559      0.652406
Ti      13.55348     13.69757      6.90368         0.378378      0.432420      0.953485
Ti       1.89237      1.96512     11.18646         0.400116     -0.148451     -0.824925
Ti       1.88534     13.57673     11.23253         0.039076      0.564501     -0.497723
Ti      13.63677      2.01308     11.23417        -0.319261     -1.035787      0.094574
Ti      13.55063     13.67987     11.22485         0.061214      1.385021     -0.893101
Ti       1.99507      5.76612      2.22267        -0.813704      0.793296      2.181356
Ti       1.87756      5.85577     15.58338         0.888056     -1.152205      1.187723
Ti      13.62778      5.86089      2.33197         0.003583     -0.846983      0.846665
Ti      13.68707      5.84213     15.64739        -0.753180      0.857517     -0.258626
Ti       1.98015      5.76235      6.68099         0.057526      0.422886      3.057902
Ti      13.70358      5.78771      6.89540        -0.376847      0.459208     -1.428738
Ti       1.91196      5.87129     11.15746        -0.784558     -0.041190     -0.481112
Ti      13.60205      5.92885     11.16852         0.943860     -1.267313     -0.722376
Ti       1.83065      9.73152      2.42596         0.608167     -0.810158      0.150954
Ti       1.82432      9.68406     15.64119         0.515666      0.049633      0.456696
Ti      13.59943      9.73472      2.57019        -0.641566     -0.037586     -0.966505
Ti      13.53374      9.92236     15.73766         0.739699     -0.524718     -1.424055
Ti       2.00860      9.70351      6.67013        -0.650206      0.628187      0.427118
Ti      13.61777      9.64811      6.79829        -0.225090      0.929554      1.118086
Ti       1.92831      9.63779     11.22819        -0.239967      0.909625     -1.743282
Ti      13.65251      9.84146     11.09438        -0.289622     -0.145157     -0.767486
Ti       5.86564      1.90104      2.35431        -0.039211      0.166954     -0.199717
Ti       5.82048      1.89641     15.53612        -0.201108      1.051881      0.317953
Ti       5.74196     13.62248      2.25273         0.327557     -0.020248      0.919327
Ti       5.85344     13.58096     15.66454        -0.315810     -0.037702      0.245709
Ti       5.85524      1.90971      6.73513        -1.627984      0.743376      0.306313
Ti       5.76099     13.64440      6.77850        -0.069022     -0.360953      0.380853
Ti       5.76668      1.92320     11.12509         0.459813      0.730111      0.033823
Ti       5.74055     13.64001     11.26828        -0.053291     -0.392578     -0.855461
Ti       5.83942      5.75943      2.24024        -0.203294      0.883597     -0.349394
Ti       5.73781      5.85579     15.65159         0.003868     -1.165649     -0.306325
Ti       5.78887      5.80573      6.68273         0.401022      0.274344      0.854180
Ti       5.83878      5.89595     10.98588         0.155049     -0.335120      1.652850
Ti       5.77521      9.78928      2.26417         0.638448     -1.098195      0.649524
Ti       5.81399      9.62759     15.60044        -0.638008      1.104722     -0.370694
Ti       5.81748      9.75766      6.73819        -0.381588     -1.407349      0.455650
Ti       5.85379      9.70413     11.26215         0.006127      0.721947     -1.674756
Ti       9.75261      1.95755      2.34544         0.032312      0.728104     -0.427908
Ti       9.62855      1.91615     15.56345         0.087715     -0.505046     -0.360438
Ti       9.69830     13.66407      2.34953        -1.206963     -0.800832     -0.735359
Ti       9.83437     13.63231     15.60338        -1.067499      0.035192      0.409401
Ti       9.65670      2.00231      6.62219         0.548308     -0.712271     -0.182098
Ti       9.68399     13.62829      6.76297        -1.048496      0.491592      1.257938
Ti       9.73887      1.80695     11.15989        -0.857307      0.652940      0.498024
Ti       9.65171     13.58131     11.19108         0.336751      1.763367     -0.722116
Ti       9.75732      5.85160      2.23544         0.312827      0.143631     -0.133207
Ti       9.70255      5.81277     15.50182        -0.266194      0.508026      1.919167
Ti       9.69922      5.86237      6.70790        -0.102198      0.288074      1.075791
Ti       9.75775      5.80091     11.17682        -1.087139     -0.371644      0.005836
Ti       9.69112      9.70841      2.30344        -0.296985      0.686595      0.900930
Ti       9.66565      9.73093     15.55787         0.255491     -0.068761      1.150839
Ti       9.67595      9.72095      6.80917         0.200624     -0.276239     -0.114456
Ti       9.75135      9.76657     11.24050        -0.407253     -0.823070     -1.509857
O       2.13795      1.96356      0.66695        -0.806853     -0.457014      0.479776
O       1.88589      1.94655     13.77158         0.098833      0.019254     -1.469135
O       1.82734     13.65877      0.51774         0.030857     -0.231932      0.993415
O       1.91315     13.41129     13.81745         0.164025      0.164940      0.545440
O      13.67016      1.93958      0.52514        -0.172297      0.015392     -0.899136
O      13.65210      1.85623     13.89131        -0.123656      0.641819      0.598095
O      13.63402     13.49913      0.62364        -0.228774      0.220951     -0.111555
O      13.64341     13.71622     13.79509         0.125079     -0.248772      1.350483
O       1.90455      1.72117      4.99288        -0.160503      0.333900      0.057553
O       1.69585     13.72520      5.12040        -0.054488      0.291625      0.232967
O      13.50369      2.02596      5.00328        -0.183231     -0.426968     -0.360198
O      13.49780     13.59998      5.14490        -0.174645      0.162890     -0.062479
O       1.79543      1.99807      9.34921         0.215735     -0.147868      1.670196
O       1.85730     13.77977      9.43812        -0.127389     -0.635543      1.082187
O      13.62052      1.86944      9.47675        -0.183227      0.757841      0.537429
O      13.40679     13.85969      9.41890         0.257953     -0.748047      1.035507
O       1.94918      5.87715      0.52181        -0.251178     -0.206187     -0.596124
O       1.87652      5.61075     13.85492        -0.019884      0.805835     -0.252985
O      13.70267      5.74013      0.57429        -0.389114      0.534958     -0.243422
O      13.69061      6.13524     13.89445        -0.073869     -0.813413      0.559989
O       1.88222      5.81163      5.01764         0.113215     -0.104469     -2.086797
O      13.69337      5.82525      5.11411        -0.027806      0.193885      1.075275
O       1.83613      5.89330      9.40347         0.233027      0.155326      0.613837
O      13.62653      5.74225      9.35909        -0.223600      0.393281      1.339651
O       1.78481      9.64014      0.65542        -0.051984      0.501430      0.393813
O       1.83736      9.74095     13.92083        -0.333637      0.319380     -1.094019
O      13.56646      9.84208      0.79337         0.267739     -0.210726     -0.328224
O      13.62749      9.94203     13.93712        -0.635975     -0.572134      0.588786
O       1.95017      9.77070      4.91391         0.191192     -0.099137     -0.432692
O      13.57100      9.54533      5.06185         0.141268      0.610052     -0.688155
O       1.95507      9.71196      9.42592        -0.297564     -0.380678      1.312548
O      13.58365      9.76297      9.28734         0.192062      0.115620      1.844570
O       5.66846      1.95921      0.61206         0.529852     -0.057344      0.219873
O       5.84662      2.04782     13.78319        -0.278752     -0.573834      0.444088
O       5.85591     13.43460      0.48733        -0.286565      0.537754      0.576968
O       5.75303     13.62408     13.93341         0.066549     -0.025287     -0.721540
O       5.73158      1.93845      4.96636         0.143289     -0.331741      0.346921
O       5.70785     13.52381      5.05010         0.166895      0.324032     -0.068447
O       5.60643      1.91502      9.37665         0.489822     -0.048297      0.256852
O       5.71996     13.66957      9.50624         0.196178      0.007135      0.540058
O       5.67615      5.65013      0.52486         0.459755      0.612725     -0.216072
O       5.78404      5.85238     13.85403        -0.237003      0.215995      0.992281
O       5.83264      5.70318      4.92812        -0.271656      0.447311     -0.247944
O       5.85905      6.02574      9.28556        -0.041202     -0.612195     -0.268307
O       5.91617      9.76369      0.53686        -0.480030      0.142681     -0.538666
O       5.84041      9.70528     13.78387         0.013830     -0.094907      0.755331
O       5.70164      9.68588      4.95132         0.354136      0.329733      1.091942
O       5.83118      9.84704      9.50574        -0.031378     -0.246923      0.483430
O       9.81899      2.01362      0.56377        -0.471502     -0.110067      1.035504
O       9.60421      1.94512     13.79029         0.456616      0.049072      0.992177
O       9.58995     13.69744      0.52083         0.585068     -0.078379      2.044890
O       9.67316     13.53653     13.86988         0.088115      0.110582      0.085306
O       9.71404      2.17827      4.83400        -0.191923     -0.807995      1.296686
O       9.61442     13.66277      5.04639         0.330288     -0.508622     -1.524504
O       9.73438      1.83185      9.38454         0.117506      0.263173      0.658799
O       9.69405     13.75324      9.33847        -0.052694     -0.428871      1.873532
O       9.95371      5.84840      0.43501        -0.485099     -0.066962      1.425296
O       9.48306      5.79778     13.79243         0.851403      0.017530     -0.229068
O       9.66071      5.82710      4.97649         0.198581     -0.043369     -0.049294
O       9.66147      5.78942      9.42238         0.192600     -0.061483      0.102360
O       9.66617      9.83587      0.56686         0.262087     -0.776578      0.418604
O       9.69037      9.80708     13.78254         0.274027      0.204675      0.575484
O       9.62208      9.80368      5.06561        -0.185108     -0.313934     -0.123559
O       9.74985      9.59590      9.43833        -0.097530      0.678620      1.307559
O       3.80052      1.90169      2.84250         0.613809      0.195964      0.143677
O       3.87331      1.88713     15.97256         0.398452     -0.060871     -0.332696
O       3.88837     13.69467      2.72544        -0.929765     -0.258248     -0.301474
O       3.87331     13.46045     16.15138        -0.127877      0.574557     -0.644150
O      15.52886      1.91768      2.77000        -0.146345      0.008153     -0.198313
O       0.02013      1.81713     16.02110        -0.065992      0.248916      0.029032
O      15.46390     13.61070      2.75978         0.038079      0.140096     -0.065282
O       0.10328     13.65406     16.05111        -1.873464      0.246252     -0.280318
O       3.86486      1.88585      7.17296        -0.172513     -0.091551     -0.026884
O       3.82813     13.74320      7.24655        -0.089749     -0.406685     -0.256646
O      15.50221      2.02165      7.04403         0.091883     -0.087467      0.324964
O      15.46329     13.69649      7.37841         0.197420     -0.381125     -0.318463
O       3.85580      2.04077     11.61605        -0.888357     -0.189333     -0.084785
O       3.85924     13.48404     11.69590        -0.664605      0.549578     -0.008194
O      15.55154      1.90939     11.67850         0.508879      0.320225     -0.229276
O      15.52293     13.70158     11.72867         0.625916     -0.190585     -0.659718
O       3.85911      5.72735      2.68511        -0.718333      0.198100      0.110055
O       3.80643      5.86849     16.18312        -0.004708      0.049392     -1.108820
O      15.50166      5.89796      2.83356         0.273001     -0.075850     -0.297334
O      15.54762      5.81512     16.17264         0.621600      0.108671     -0.707704
O       3.84509      5.94777      7.24501         0.331097     -0.582114     -0.592158
O       0.09573      5.74357      7.24666        -1.373044      0.297251     -0.291415
O       3.84250      5.82670     11.40482         0.396893      0.167156      0.433045
O      15.57177      5.92403     11.58213        -0.789306      0.137356      0.281748
O       3.89815      9.77314      2.79744        -1.482618     -0.231828     -0.492788
O       3.80827      9.64232     15.78627         0.412179      0.572910      0.867557
O      15.54308      9.66227      2.93083         0.070898      0.712523     -0.301636
O      15.46946      9.68478     16.06387         0.340049      0.335516      0.401690
O       3.83446      9.74179      7.28351         0.920664     -0.250819     -0.691963
O       0.03376      9.75223      7.09579        -0.889716      0.070935      0.231505
O       3.80663      9.66772     11.65381         0.190358      0.634097      0.162419
O      15.53048      9.71892     11.50827        -0.721595      0.052813      0.209461
O       7.72685      2.02993      2.89818         0.273859     -0.471184     -0.913034
O       7.72469      1.94157     15.94873         0.161759     -0.078634      0.321859
O       7.68871     13.65417      2.85936         0.619274     -0.014448     -0.358593
O       7.71416     13.67712     16.07926         0.619450     -0.340811     -0.349601
O       7.72269      2.02131      7.16548         0.685304     -0.152866     -0.387817
O       7.67194     13.64199      7.26361         0.630728     -0.320480     -0.286736
O       7.77582      1.81810     11.49156        -0.077695      0.200273      0.049482
O       7.70496     13.80378     11.67909         0.581701     -0.887204     -0.635916
O       7.79123      5.80330      2.51091         0.420560     -0.044862      0.374137
O       7.71386      5.97576     16.06629         0.954879     -0.533823     -0.473190
O       7.71836      5.72130      7.06282         0.748099     -0.148126      0.217486
O       7.80057      5.84295     11.62378        -0.515524      0.509236     -0.491730
O       7.64974      9.68693      2.84347         0.766584     -0.120577     -0.202954
O       7.75044      9.67381     16.03397         0.736929      0.091403     -0.747697
O       7.70750      9.73876      7.28854         0.300093      0.234391     -0.420438
O       7.77875      9.73163     11.64151         0.614451      0.150937      0.070360
O      11.67766      1.87360      2.77123        -0.317417      0.254447     -0.099733
O      11.60655      1.86644     16.02176         0.773521      0.781799     -0.410243
O      11.56153     13.52296      2.78904         0.000581      0.415060     -0.026123
O      11.66915     13.60047     15.97006         0.830289      0.219534      0.191975
O      11.52919      1.93307      7.02611         0.487729      0.019403      0.240807
O      11.53204     13.74446      7.29531         0.801144     -0.996617     -0.526111
O      11.73376      1.89705     11.78612        -0.509384      0.882526     -0.612086
O      11.64091     13.72355     11.69200        -0.316248     -0.523096     -0.190971
O      11.67806      5.99271      2.87186        -0.274563     -0.933291     -0.612466
O      11.72764      5.78245     15.97661        -0.111935     -0.156854     -0.590040
O      11.66153      5.96453      7.29530         0.112285     -0.568379     -0.474642
O      11.64947      5.86405     11.57664         0.636052      0.012648      0.403001
O      11.64836      9.77288      2.81540        -0.742457     -0.164188      0.187575
O      11.60113      9.77760     16.17322         0.539110      0.342906     -0.585445
O      11.59387      9.57476      7.04330         0.642568      0.160920      0.563437
O      11.68657      9.82345     11.58142         0.305576      0.020904      0.385819
O       1.71938      3.94242      2.82765         1.197163     -0.856538     -0.771763
O       2.00929      3.81679     15.92529        -0.734957      0.050828      0.214661
O       1.77483     15.52731      2.76996         0.329348      0.465600     -0.259128
O       2.02044     15.51435     16.03727        -0.078927      0.140008     -0.402777
O      13.53516      3.93934      2.71848         0.172214     -0.678002      0.008375
O      13.77661      3.82974     16.02573        -0.760483      0.736475     -0.539947
O      13.51262      0.03729      2.68196         0.051349     -1.255847      0.184214
O      13.55856      0.01349     16.03270         0.699130     -0.896955     -0.097140
O       1.95588      3.83079      7.17587         0.221715      0.152718     -0.246543
O       1.86851      0.01367      7.29384        -0.397637      0.362406     -0.117530
O      13.47470      3.90781      7.18538         0.241689     -0.421022      0.196066
O      13.56102      0.03987      7.30394        -0.290973     -0.064272     -0.862326
O       1.84702      3.93932     11.55207        -0.112325     -0.568501      0.135382
O       1.90216     15.59899     11.59876         0.396316      0.284834      0.097447
O      13.70231      3.94035     11.75288        -0.754460      0.070739     -0.385721
O      13.59333      0.03249     11.71558         0.309141      0.063055     -0.088245
O       1.88867      7.78675      2.80264         0.288993      0.020768     -0.337393
O       1.96065      7.75634     15.94323        -0.880688      0.151384      0.045147
O      13.57919      7.77162      2.85745         0.122991      0.801123     -0.182670
O      13.65964      7.80882     16.17540        -0.645628     -0.053266     -0.353574
O       1.91781      7.79825      7.11686        -0.076912     -0.089958     -0.059514
O      13.70278      7.75714      7.33272        -0.034624      0.215736     -0.600674
O       1.87676      7.80789     11.85329         0.108207     -0.239140     -0.857057
O      13.56625      7.80074     11.59018        -0.161575      0.943559     -0.112424
O       1.85032     11.77532      2.81978        -0.122885     -0.840823     -0.323277
O       1.82701     11.64570     16.13554         0.163375     -0.678877     -0.177859
O      13.53742     11.69720      2.95686         0.238627     -0.111847      0.101652
O      13.67878     11.77353     15.96342        -0.220355     -0.049643      0.551073
O       1.95217     11.66503      7.09618        -0.479049      0.459005      0.516557
O      13.50311     11.63566      7.33929         0.010845      0.302503     -0.680913
O       1.77321     11.65015     11.56037         0.424525     -0.247377      0.084055
O      13.60837     11.83749     11.58558        -0.065033     -2.204451     -0.193701
O       5.81908      3.90639      2.69279        -0.347687     -1.017866      0.604135
O       5.86568      3.95568     15.99175        -0.247076     -0.900987     -0.130884
O       5.79262     15.54575      2.63480         0.058113      0.625013      0.256469
O       5.81589     15.56600     16.06608        -0.106157      0.108721     -0.575336
O       5.69278      3.90010      7.08386         0.007720     -0.434663      0.302090
O       5.80347     15.55269      7.27142         0.183290      0.762555     -0.770145
O       5.91677      3.89913     11.44700        -0.464156      0.259860     -0.184510
O       5.66393      0.04922     11.69334         0.187923     -0.702119     -0.082173
O       5.71461      7.74443      2.61667         0.152896      0.098239      0.393481
O       5.73859      7.80657     16.16810         0.306044      0.039919     -0.446447
O       5.93049      7.80369      7.15960        -0.602312      0.226605     -0.438079
O       5.75652      7.83937     11.49390         0.180712     -1.259423      0.466509
O       5.68719     11.65761      2.80638         0.820813      0.678300     -0.481414
O       5.81581     11.61782     16.06130         0.036324     -0.494625     -0.489221
O       5.81146     11.64985      7.29677        -0.091571      0.386067     -0.651524
O       5.85690     11.67414     11.61903        -0.070905      0.247990      0.715950
O       9.75923      3.86623      2.77413         0.117509      0.926952     -0.550738
O       9.64249      3.86818     16.03748         0.563417      0.469181     -0.721721
O       9.58725      0.05461      2.79593         0.921122     -1.078503     -0.491243
O       9.66875      0.02837     16.15460         0.279010     -0.543616     -0.809717
O       9.80807      3.89562      7.20750        -0.256528     -0.102488     -0.295102
O       9.62644     15.57186      6.96667        -0.405134      0.978566      0.182699
O       9.74892      3.89256     11.61140         0.260899     -0.328157     -0.116082
O       9.76547     15.59451     11.69754        -0.048299     -0.350573     -0.338654
O       9.69711      7.69197      2.82957        -0.287724      1.343192     -0.559417
O       9.80280      7.78613     15.85648        -0.156579      0.374516     -0.065199
O       9.56469      7.71154      7.26315         0.600776      0.425571     -0.935953
O       9.71194      7.83330     11.67936         0.500639     -0.017323      0.080758
O       9.46503     11.62731      2.62519         0.799469      0.751250      0.312243
O       9.68583     11.74728     16.21964         0.194326     -0.643625     -1.241003
O       9.61882     11.63157      7.21587         0.695396      0.496709      0.021056
O       9.68491     11.78069     11.53343        -0.134038     -1.152261      0.093713
