  # total energy = -7864.95060654 
CRSYTAL
PRIMVEC
    15.010000000000000    0.0000000000000000    0.0000000000000000
     0.0000000000000000   15.010000000000000    0.0000000000000000
     0.0000000000000000    0.0000000000000000    16.400000000000000
PRESSURE
17.1871 17.1272 8.54786 0.134195 0.212439 0.029269
PRIMCOORD
320 1
Pb       3.88880      3.74592      4.28046        -0.722957     -0.286704     -0.753016
Pb       3.68031      3.75548     16.39610        -0.180618     -0.632769      0.077573
Pb       3.68344      0.01606      4.16255         0.123740     -0.067235     -0.719528
Pb       3.80223     14.92064      0.01059        -0.629878      0.539449      0.203802
Pb      14.92327      3.75566      4.14055         0.313608     -0.145602     -0.442244
Pb      14.93267      3.61614     16.37377         0.636448      0.095501     -0.005414
Pb      14.93747      0.02711      4.26166         0.226867     -0.316335     -1.050626
Pb      14.98199     14.88704      0.13245         0.544945      0.989179      0.127862
Pb       3.52804      3.76655      8.25765         1.342742      0.196508      0.008100
Pb       3.63407      0.02210      8.12740         0.573391      0.076919      0.568700
Pb      14.85866      3.82899      8.34335        -0.148992     -0.660638     -0.102848
Pb      14.85609     14.95952      8.17486         0.092419      0.374003     -0.573101
Pb       3.61601      3.71665     12.34152         0.360863     -0.172332     -0.185194
Pb       3.66415     14.93171     12.40017        -0.000984      0.345938     -0.488734
Pb      14.93963      3.76398     12.42969        -0.017318     -0.164902     -0.467483
Pb      14.98848     14.96109     12.35490         0.731346      0.092192      0.269998
Pb       3.85964      7.43562      4.18140        -0.567108      0.168076     -0.666467
Pb       3.76355      7.47348      0.09565        -0.057662      0.048634     -0.564951
Pb       0.04723      7.51435      4.17899         0.562145     -0.316944     -0.141189
Pb      14.94758      7.49087      0.02450         0.630188     -0.080890     -0.251228
Pb       3.76244      7.50676      8.13052        -0.220489     -0.248845      0.260625
Pb      15.00969      7.53236      8.36323         0.393581     -0.308785     -0.935897
Pb       3.65228      7.54551     12.29151         0.253902     -0.125656     -0.363147
Pb      14.89819      7.42401     12.33565         0.635297     -0.136356      0.126962
Pb       3.80391     11.14307      4.37931         0.325548      0.418060     -1.267926
Pb       3.77067     11.13503     16.35445         0.246145      0.665263      0.441208
Pb       0.15324     11.15921      4.13766        -0.500326      0.457453     -0.435549
Pb       0.00952     11.33238      0.08735         0.274349     -0.571996      0.226407
Pb       3.81028     11.28032      8.18409         0.099923     -0.134046      0.013198
Pb       0.06484     11.26854      8.20845        -0.395908      0.240686     -0.414543
Pb       3.76225     11.30054     12.26819         0.048363     -0.097929     -0.456808
Pb       0.02791     11.28568     12.34186        -0.139972      0.042731     -0.322196
Pb       7.46163      3.76310      4.04120        -0.070018     -0.305949      0.272535
Pb       7.48586      3.70090     16.36756         0.069530     -0.191975     -0.094173
Pb       7.50580     14.89515      4.15790        -0.441127     -0.124283     -0.794304
Pb       7.37426     14.95474      0.00388         0.514456      0.191260      0.261337
Pb       7.37534      3.65685      8.15914         0.272862      1.187574      0.896568
Pb       7.47790      0.23544      8.14259         0.376687     -1.215499      1.020445
Pb       7.31967      3.79614     12.35745         0.557264     -0.218612     -0.203469
Pb       7.44954     14.89286     12.35585         0.384526      0.384339     -0.374483
Pb       7.52834      7.51250      4.09380         0.337787      0.049410     -0.441540
Pb       7.52026      7.51009     16.31033        -0.616696     -0.231596      0.425409
Pb       7.48711      7.43401      8.33161         0.372979      0.070172     -0.060750
Pb       7.46174      7.59901     12.35872        -0.178035     -0.864080     -0.585753
Pb       7.69338     11.18941      4.22544        -0.250419      0.118573     -1.350579
Pb       7.51403     11.24219     16.36515        -0.221011      0.064395      0.909685
Pb       7.61354     11.33790      8.09689         0.067204     -0.356544      0.238129
Pb       7.47301     11.27220     12.17547         0.009494      0.352461      0.141691
Pb      11.06039      3.82078      4.14239         0.749054     -0.253076     -0.699679
Pb      11.28368      3.70920     16.39553        -0.628961     -0.292939      0.439664
Pb      11.28687     14.96831      4.14070         0.081674     -0.024245     -0.853851
Pb      11.22466     14.93293      0.09969        -0.477443      0.163524     -0.338504
Pb      11.18096      3.73041      8.23185        -0.311633     -0.096402      0.144605
Pb      11.16108      0.06104      8.22469         0.077821     -0.143216     -0.298622
Pb      11.18769      3.70249     12.37663        -0.145549      0.470890     -0.351954
Pb      11.23530      0.09747     12.42548        -0.797057     -1.185580     -0.225126
Pb      11.44150      7.49144      4.20740        -0.627246     -0.204392     -0.628763
Pb      11.27194      7.47618      0.06387        -0.344708      0.171291     -0.200794
Pb      11.24942      7.46685      8.24809        -0.685372     -0.063821     -0.190214
Pb      11.28789      7.44462     12.29774        -0.754522      0.285395      0.094037
Pb      11.44164     11.11410      4.13709        -0.713006      0.165633     -0.222313
Pb      11.37246     11.11359     16.37789        -0.713573      0.177068      0.350745
Pb      11.31831     11.29468      8.29969        -0.610971     -0.400766     -0.711978
Pb      11.23729     11.25757     12.27778        -0.330670      0.441209     -0.137914
Ti       1.82342      1.88183      2.17555         0.154882     -1.141776     -1.021159
Ti       1.80674      1.85277     14.40204         0.472403     -0.155389      0.715213
Ti       1.88521     13.05619      2.25256        -0.428336      0.701183     -0.579356
Ti       1.83842     13.07206     14.51406         0.449964      0.869479     -0.479271
Ti      13.08666      1.89778      2.05679        -0.838309     -1.187989      0.555871
Ti      13.06038      1.86454     14.35540         1.025511      0.695377      1.067332
Ti      13.09137     13.09890      2.05165         0.521291      0.365520      1.005446
Ti      13.10346     13.07319     14.43396        -0.738742      0.557339      0.082640
Ti       1.84579      1.88873      6.16639        -1.425689     -0.425933     -0.172565
Ti       1.86452     13.20791      6.23022        -0.660462     -1.741895     -0.786335
Ti      13.03371      1.84664      6.10168         1.404242      0.284239      0.147073
Ti      13.03048     13.08548      6.15339         1.038153     -0.414599      0.355404
Ti       1.85592      1.79696     10.14750        -0.523166      0.953106      1.428107
Ti       1.86000     13.12111     10.21972         0.523954      1.062085      0.269903
Ti      13.09545      1.80292     10.40405         0.393001      1.669498     -1.216353
Ti      13.12783     13.15030     10.24949        -0.687494     -1.036873      0.882053
Ti       1.86995      5.56399      2.09775        -0.050376      0.329068      0.041585
Ti       1.76801      5.62478     14.41483        -0.042161     -0.161714      0.204145
Ti      13.16105      5.58604      1.91222        -0.201256      0.670034      0.761959
Ti      13.00714      5.65047     14.36817         1.599154     -0.935712      0.080419
Ti       1.80263      5.55729      6.20277        -0.102114      1.060514     -0.079932
Ti      13.11019      5.53470      6.21323        -0.641130      0.730170      1.203724
Ti       1.85276      5.56658     10.35742        -0.251892      0.201299     -0.242841
Ti      13.05546      5.66258     10.27956        -0.018093     -1.963035      0.880934
Ti       2.04556      9.34410      2.02800        -1.698697      0.099488      1.098722
Ti       1.86071      9.32919     14.31727         0.063722     -0.088399      1.230096
Ti      13.26617      9.32460      2.05589         0.072918      0.384107      1.167660
Ti      13.15585      9.35146     14.36229        -1.002520     -0.304135      0.442204
Ti       1.92546      9.37697      6.24876        -0.505932     -0.873207     -0.158985
Ti      13.20186      9.29608      6.24033        -0.530685      0.656162     -0.274024
Ti       1.76179      9.42763     10.27087         1.373904     -1.113216      0.898070
Ti      13.05520      9.35029     10.28312        -0.256938      1.247249      1.039424
Ti       5.59652      1.87182      2.12335        -0.189047     -0.168693     -1.165281
Ti       5.53919      1.86393     14.31441         0.152225      0.069382      0.543335
Ti       5.57520     13.14516      2.11875         1.390527     -1.485205     -0.103353
Ti       5.59697     13.10801     14.31003         0.202639     -0.063768      0.306112
Ti       5.63025      1.84882      6.26275        -0.997346      0.961463     -0.697705
Ti       5.61524     13.16068      6.24068         0.457334     -0.485747     -0.265753
Ti       5.58069      1.92451     10.25472        -0.084216     -0.487472      0.458865
Ti       5.62237     13.24371     10.15032         0.229742     -0.487078      1.298492
Ti       5.60307      5.60247      2.02288         0.116995      0.150960      0.854637
Ti       5.46445      5.58143     14.37011         2.059887      0.887813     -0.151475
Ti       5.61041      5.66545      6.16301        -0.193323     -1.087693      1.651738
Ti       5.59402      5.70320     10.24748        -0.604884     -0.776005      0.422158
Ti       5.69875      9.34483      2.11110         1.007516      1.584659     -0.190661
Ti       5.59232      9.35737     14.35741         0.905473     -0.286708     -0.038348
Ti       5.73914      9.37709      6.13449        -0.549335      0.087805     -0.506715
Ti       5.53595      9.40351     10.22933         0.087796      0.350304      1.144913
Ti       9.30446      1.83059      2.12170         0.356169     -0.174931     -1.046555
Ti       9.27596      1.80472     14.40963        -0.149592      0.519148     -0.072546
Ti       9.44293     13.05724      2.08066        -1.474544     -0.936447     -0.031156
Ti       9.34622     13.03135     14.48195         0.172989      0.571444     -1.171221
Ti       9.35896      1.80641      6.08925        -0.012344      0.605854      0.579119
Ti       9.39642     13.08782      6.11190        -0.487616     -0.671810      0.108824
Ti       9.32759      1.87785     10.35753        -0.793110     -0.295237      0.130302
Ti       9.36860     13.18707     10.19490        -0.065498      0.201855      0.983820
Ti       9.36929      5.63254      2.05330         0.457615     -0.627282      0.296658
Ti       9.30269      5.60409     14.43535         0.007222     -0.840041     -1.169278
Ti       9.33113      5.59983      6.13283         0.020550     -0.519526      0.222055
Ti       9.30379      5.58887     10.31627        -0.071482      0.769002     -0.646736
Ti       9.46780      9.26041      1.98880        -0.535304      1.833824      1.163118
Ti       9.32496      9.26626     14.31076         1.160803      0.636382      0.287430
Ti       9.38429      9.21855      6.24585         1.072156      2.879382      0.352759
Ti       9.27631      9.41793     10.30573         0.808332     -0.934763     -0.989362
O       1.74093      1.85033      0.28410         0.299330      0.201155      0.983897
O       1.69885      1.92218     12.59512         0.761212     -0.376339     -0.207744
O       1.83293     13.04378      0.32613         0.058349     -0.066435      0.398930
O       1.73471     13.18995     12.65538         0.309258     -0.225279     -0.087030
O      13.14606      1.74884      0.19945        -0.308255      0.339664      0.843662
O      13.14004      2.09992     12.52512        -0.004044     -1.165143      0.300595
O      12.97722     13.08960      0.20377         0.679571      0.380988      0.444489
O      13.07308     13.10586     12.60532         0.155837     -0.232728      0.497016
O       1.79134      1.75465      4.34022         0.064375      0.495447      0.435397
O       1.89581     13.10160      4.37815         0.146111      0.057485      0.110725
O      13.07447      1.84798      4.29082        -0.006665      0.351645      0.435613
O      13.01152     12.99912      4.37042         0.177216      0.338893      0.216493
O       1.85899      1.86857      8.34776        -0.303156     -0.096565      0.210151
O       2.01140     13.26337      8.39926        -0.703935     -0.906093      0.941241
O      12.94237      1.83588      8.54744         0.231470     -0.504564      0.242934
O      13.07542     13.08713      8.45665         0.106292      0.432328     -0.043130
O       1.94747      5.59929      0.23820        -0.160217      0.085040      0.766929
O       1.97387      5.52170     12.59172        -0.455055      0.365468     -0.921269
O      13.11922      5.71119      0.10752         0.314572     -0.404179      1.162269
O      13.16923      5.51282     12.53140        -0.902284      0.835762     -0.018510
O       1.83552      5.58256      4.40299        -0.181542      0.070124     -0.258616
O      13.07443      5.62263      4.46510         0.287833     -0.331477     -1.645007
O       1.79570      5.51991      8.47646        -0.201317      0.155402      0.747643
O      13.20778      5.70625      8.46721        -0.579866     -0.058177     -0.125221
O       1.92292      9.32336      0.23500         0.163114      0.379951     -0.504062
O       1.79516      9.47070     12.55027        -0.052140     -0.409224     -0.690318
O      13.25077      9.29560      0.27511        -0.154593      0.041756     -0.581256
O      13.15486      9.39751     12.56516        -0.111264      0.025020     -0.505896
O       1.82240      9.37115      4.41325        -0.001591     -0.209038      0.560585
O      13.24671      9.39359      4.30997         0.038999     -0.528244      1.159556
O       1.93006      9.27992      8.51044         0.057222      0.593012     -0.886225
O      12.98128      9.28690      8.52807         0.524683      0.188420     -1.501663
O       5.66667      1.70878      0.21075        -0.191525      0.658544      1.413481
O       5.60755      1.94626     12.49441        -0.224241      0.038707     -0.004330
O       5.65232     13.20946      0.21304        -0.090386     -0.215532      0.657967
O       5.56211     13.14398     12.48580         0.101955     -0.236132      0.612620
O       5.73733      1.97745      4.46205        -0.627599     -0.539138     -0.530629
O       5.57490     13.14536      4.46382        -0.189139     -0.066775     -1.507391
O       5.74710      1.87806      8.38807        -0.914083     -0.344576      0.298095
O       5.52104     13.16578      8.34673         0.345655     -0.069071      0.178865
O       5.52342      5.67640      0.22475         0.021914     -0.473179      0.503079
O       5.53623      5.57372     12.52361        -0.029316      0.055814      0.052070
O       5.54128      5.51961      4.37557         0.352845      0.613773      0.354943
O       5.53452      5.76780      8.44796         0.153626     -0.166090     -0.317501
O       5.65504      9.41501      0.25073         0.011016     -0.344614     -0.066694
O       5.64533      9.33981     12.53827        -0.217995      0.349116     -0.248782
O       5.77387      9.38324      4.24863        -0.321500     -0.032102      1.629023
O       5.61019      9.30390      8.46789        -0.366159      0.316037     -1.089389
O       9.27601      2.04234      0.26992         0.258056     -0.780264     -0.575362
O       9.21253      1.80494     12.56747         0.610229      0.052534      0.173504
O       9.32893     13.08050      0.21933         0.098120     -0.374008      0.175118
O       9.40592     13.16427     12.60768         0.026723     -0.147355      0.736788
O       9.27594      1.75672      4.30974         0.309603      0.093722     -0.000369
O       9.50099     13.06541      4.27230        -0.500822      0.275439      0.658841
O       9.47567      1.83884      8.49134        -0.191944      0.220990     -0.156674
O       9.28068     13.12595      8.41411         0.378480      0.034772     -0.213241
O       9.48203      5.53578      0.23050        -0.547746      0.299426      0.072934
O       9.41074      5.71259     12.54116        -0.291683     -0.162247      0.386850
O       9.39059      5.57249      4.27492         0.110200      0.327155      0.588402
O       9.44084      5.62849      8.44364        -0.317463     -0.133009      0.374282
O       9.30612      9.23899      0.23145         0.083184      0.245399     -1.425097
O       9.25756      9.29001     12.47567         0.507811     -0.013484      0.327717
O       9.36943      9.28660      4.45427        -0.010692      0.119875     -0.704814
O       9.29419      9.35915      8.46013         0.409255      0.124192     -0.189688
O       3.74850      1.72714      2.35385         0.432239      0.225495      0.100091
O       3.70965      2.09178     14.76279        -0.101997     -0.233897     -0.707100
O       3.76468     13.29265      2.29041         0.069958      0.242977      0.278984
O       3.71792     12.96273     14.68682         0.512410     -0.541790     -0.181586
O      14.88689      1.84358      2.39898         1.182332      0.853600      0.024596
O       0.02229      1.58425     14.71124        -1.606507      0.323384     -0.204289
O      14.98115     13.00891      2.44770         1.259169     -0.473589     -0.498405
O      14.96768     13.20647     14.81112        -0.513838      0.338811     -0.534057
O       3.64005      1.60769      6.40865         2.173684      0.167979     -0.272676
O       3.71835     13.34585      6.42628         0.750175     -0.472724      0.044607
O      14.89978      1.94308      6.33255         1.014879      0.084776      0.599075
O      14.96723     13.01072      6.54192         0.053045      0.063329     -0.132904
O       3.73707      1.62234     10.55038        -0.454434     -0.098926     -0.217448
O       3.76605     13.34369     10.63382        -1.156439      0.064842     -0.490859
O      14.94990      2.12454     10.47886         0.544088     -0.021247     -0.123664
O      15.00617     12.95649     10.54209        -0.070802     -0.155382     -0.185908
O       3.72837      5.70885      2.46503         0.399959      0.169080     -0.475503
O       3.72531      5.37042     14.57403        -1.264276      0.044831      0.485288
O       0.03338      5.31409      2.30482        -0.434076      0.333555      0.045624
O      14.93732      5.70935     14.54693         0.782292      0.987749      0.255651
O       3.66672      5.75998      6.48173         1.156486      0.130322     -0.250800
O      14.94727      5.43432      6.44071         0.708079     -0.547605      0.108835
O       3.68847      5.99826     10.49128        -0.273545     -0.861974     -0.002469
O      14.91823      5.35523     10.61757         1.461131      0.544488     -0.473626
O       3.82511      9.20695      2.38501         0.051399     -0.596508      0.103288
O       3.81854      9.52123     14.60773        -2.409597      0.182128     -0.117607
O       0.10083      9.69074      2.20775         0.019292     -0.433033      0.451057
O      14.96174      9.15342     14.55954         1.247060     -0.279756      0.356517
O       3.79813      9.22238      6.29243        -0.462721      0.026472      0.482904
O       0.03995      9.48149      6.69930        -0.978491      0.100098     -0.499019
O       3.64128      9.37934     10.59436         0.804051     -0.735835      0.175711
O      14.96871      9.70056     10.38572        -1.093047     -0.243728      0.507136
O       7.47261      2.01872      2.44180         0.157095     -0.026591     -0.322965
O       7.42115      1.68453     14.62599         0.215229     -0.144880      0.070219
O       7.51080     12.86724      2.36491         0.080809      0.801124      0.228510
O       7.47453     13.32438     14.57730        -0.427215     -0.117098      0.179614
O       7.49929      2.14930      6.46786         1.100824     -1.027176     -0.252117
O       7.49346     12.91519      6.27424         0.260205      0.033262      0.379270
O       7.43943      2.09007     10.54051         0.435605      0.313922     -0.130493
O       7.50981     13.02834     10.56165        -0.970982     -0.824862     -0.187286
O       7.50411      5.46072      2.39248        -0.223983      0.359806     -0.715048
O       7.44152      5.79728     14.68861         0.333325     -0.182499     -0.313198
O       7.44832      5.47311      6.53092         0.228730     -0.058969     -0.487787
O       7.43426      5.39656     10.46315         0.046044      0.321144      0.266517
O       7.57848      9.42840      2.27016        -0.529562      0.099958      0.385496
O       7.48481      8.95401     14.46499         0.461049      0.469695      0.704808
O       7.51207      9.58004      6.45387         0.296184     -0.176350      0.028269
O       7.46247      9.56351     10.44091        -1.401644      0.633091      0.514100
O      11.19222      1.77410      2.43923         0.906764     -0.551550     -0.354200
O      11.24121      2.16709     14.58705        -0.528152     -0.481226     -0.331644
O      11.26815     13.30366      2.40813         0.011384     -0.372958     -0.570483
O      11.16378     12.86302     14.79722         1.512591      0.142517     -0.749034
O      11.24883      1.64475      6.35042        -1.616031     -0.087680      0.374675
O      11.18762     13.22158      6.44327         0.834702      0.605318      0.462126
O      11.20703      1.85081     10.75777         0.064545     -1.344637     -0.283622
O      11.22268     13.33879     10.57406         0.529086      0.641746     -0.195496
O      11.33485      5.81020      2.29800        -0.586291      0.151002      0.185479
O      11.29878      5.24878     14.68621        -2.264935      0.502101     -0.640485
O      11.17098      5.78222      6.38250         0.992024      0.220746      0.275332
O      11.18977      5.93784     10.57662         0.470756     -0.262382     -0.504902
O      11.34825      9.12762      2.21568         0.563811     -0.014336      0.510951
O      11.27144      9.43900     14.76212        -0.781909      0.218749     -0.687849
O      11.28046      9.23371      6.41032         0.476229     -0.499004      0.092390
O      11.18393      9.14445     10.53532         0.346305     -0.059431      0.372179
O       2.01573      3.67406      2.47399        -0.099524      1.124048     -0.118706
O       1.69060      3.79280     14.69432        -0.118479     -1.515076      0.152769
O       1.85885      0.00510      2.45472        -0.637156     -1.128712     -0.215654
O       2.09874     14.98431     14.70430        -0.354484     -0.281564     -0.292051
O      12.97322      3.77152      2.20070         0.147817     -0.957753      0.275654
O      13.37415      3.77873     14.65692        -0.110102     -1.600847      0.054295
O      13.32729     14.88411      2.50366        -0.945064      1.619632     -0.644214
O      12.85272      0.03644     14.61944         0.078950     -1.380405     -0.450026
O       2.10463      3.67859      6.43109        -0.821071      0.874552     -0.300281
O       1.76816     14.96169      6.48309        -0.934137      1.698596      0.080987
O      12.94235      3.71575      6.55105        -0.155896     -0.475587     -0.185984
O      13.22091     14.94922      6.41694        -0.171544      0.677020      0.107924
O       2.16257      3.65284     10.49221        -0.450291      1.441993     -0.079341
O       1.61611      0.03974     10.50505        -0.153297     -1.494281      0.389078
O      12.88133      3.79156     10.47406        -0.297902      0.021530     -0.317370
O      13.44657     14.94535     10.64395        -1.170748      1.314415     -0.368277
O       1.69607      7.51941      2.41808         0.074224     -0.874718     -0.308432
O       2.02876      7.46926     14.68453         0.262400      0.542483     -0.237030
O      13.56480      7.41741      2.35058        -0.660751      0.863431     -0.336678
O      12.82883      7.45315     14.74575         0.862819      0.972924     -1.093487
O       1.64563      7.46733      6.51502         0.298961      0.181356     -0.056556
O      13.31797      7.46425      6.44959        -0.235594      0.267892      0.011951
O       1.60062      7.47874     10.63790        -0.236534      0.501000     -0.173945
O      13.33487      7.52745     10.65620        -0.086094     -0.111616     -0.315852
O       2.21004     11.18678      2.51728        -0.633260      0.804656     -0.494928
O       1.70580     11.18365     14.60691        -0.147549      0.206802      0.418392
O      13.10584     11.29231      2.38988        -0.752311     -1.863556     -0.457066
O      13.27426     11.20228     14.76510        -0.144677      0.286101     -0.444450
O       1.93840     11.26179      6.48303         0.489526     -0.316283      0.340574
O      12.93934     11.22601      6.44905         0.390079     -0.758042      0.352177
O       1.97556     11.32745     10.55780         0.261396     -0.362325     -0.097714
O      12.81347     11.28733     10.48959         0.350070     -0.647568      0.295059
O       5.52994      3.75318      2.51866        -0.118157      0.173248     -0.978382
O       5.75472      3.71616     14.65821         0.253762      0.513570     -0.005943
O       5.81460      0.05612      2.44362         0.038196     -1.324798      0.070760
O       5.34895     15.00790     14.45963         0.090405     -0.512060      0.292799
O       5.40539      3.68937      6.50977        -0.171299      1.783391      0.055248
O       5.88403      0.01029      6.36689        -0.115058     -0.153289      0.254321
O       5.40273      3.76948     10.29139        -0.571892      0.497121      0.782681
O       5.87521      0.02347     10.50628        -0.403961     -0.064138     -0.191692
O       5.75187      7.46680      2.47922        -0.162393     -0.827806     -0.479261
O       5.39775      7.49231     14.73770        -0.143438     -0.580027     -0.412948
O       5.77404      7.53766      6.43634        -0.229778     -0.933112     -0.400440
O       5.71179      7.55457     10.57607         0.306786      0.094426     -0.012542
O       5.49038     11.23804      2.33933        -0.275000      0.355209     -0.062062
O       5.85639     11.22517     14.58805        -0.074004      0.379862      0.034247
O       5.44793     11.21917      6.38340        -0.219113      0.351287      0.649911
O       5.35991     11.31839     10.46313         0.544202     -0.211397      0.034567
O       9.51628      3.70199      2.22748         0.123824      1.617887      1.073761
O       9.10711      3.74208     14.51666        -0.095776     -0.338002      0.349128
O       9.30556     14.94409      2.16949        -0.599339      0.396196      0.430870
O       9.54645     14.99031     14.68450         0.353174     -0.078420      0.086011
O       9.61317      3.72102      6.25346        -0.233541     -0.455559      0.476583
O       9.18862     14.97030      6.55184         0.202310      0.589372     -0.929653
O       9.49706      3.72216     10.45871         0.318714      1.115501      0.494579
O       9.03729      0.00725     10.53542         1.008954      0.291584     -0.128253
O       9.22554      7.49347      2.43362         0.266121     -1.388600     -0.238728
O       9.56749      7.39806     14.68802         0.397137      1.066267      0.067096
O       9.23426      7.46222      6.40921        -0.542506     -1.018313      0.411098
O       9.01525      7.52114     10.38129         0.301752     -0.534008      0.525668
O       9.54233     11.15215      2.32141         0.460621      0.147215      0.060523
O       9.13463     11.10044     14.57179        -0.071152      0.737718      0.101270
O       9.54224     11.25185      6.51288        -0.386637     -0.205442     -0.198632
O       9.55691     11.31065     10.55300        -0.173314     -0.584387      0.116417
