  # total energy = -7880.51689706 
CRSYTAL
PRIMVEC
    15.2000000000000000    0.0000000000000000    0.0000000000000000
     0.0000000000000000   15.2000000000000000    0.0000000000000000
     0.0000000000000000    0.0000000000000000    17.000000000000000
PRESSURE
7.72095 7.25512 5.66763 -0.173072 0.258617 0.012931
PRIMCOORD
320 1
Pb       3.64683      3.86765      4.27310         0.063076     -0.007716      0.278113
Pb       3.94376      3.90265      0.07358        -0.814642     -0.269004     -0.680141
Pb       3.60242      0.19894      4.37034         0.257267     -0.481872      0.279294
Pb       3.92070     15.18939      0.00178        -0.437078     -0.554744     -0.196182
Pb      15.14082      3.91106      4.16427         0.194979      0.122287      0.061899
Pb       0.11047      3.72268     16.94593        -0.108146      0.452864     -0.062879
Pb      15.16374      0.27431      4.42588         0.317461     -0.565305     -0.501196
Pb       0.06894     15.12002     16.87237        -0.492245      0.078629      0.587114
Pb       3.93974      3.80065      8.44488        -0.550266     -0.466610     -0.682495
Pb       3.80881     14.97392      8.70470         0.022297      0.457429     -0.918439
Pb       0.04387      3.72635      8.64053         0.074181      0.028872     -0.671979
Pb      14.98463     15.07078      8.65123         0.336481      0.426860     -0.671481
Pb       3.82781      3.81056     12.63459        -0.484673     -0.392400      0.344199
Pb       3.83570     15.16495     12.75333         0.020852     -0.113826     -0.337514
Pb       0.00142      3.69903     12.70871         0.162592      0.002726      0.231053
Pb       0.09046     15.16608     12.83263        -0.751504      0.428111     -0.438226
Pb       3.64016      7.75920      4.33113         0.129229     -0.684374     -0.340345
Pb       3.92028      7.64184      0.02801        -0.883276      0.048039      0.016650
Pb      15.09063      7.86540      4.24497         0.379497     -1.005661     -0.051990
Pb       0.06907      7.61534     16.83223        -0.233048     -0.259174      0.676313
Pb       3.77729      7.59699      8.37303        -0.225084     -0.220961     -0.335273
Pb      15.05736      7.48138      8.51954         0.399244      0.053518     -0.240186
Pb       3.81226      7.45344     12.56199        -0.051717      0.495813      0.719975
Pb      15.12907      7.35553     12.65822         0.589759      0.452968      0.941968
Pb       3.50928     11.51002      4.33178         0.359614     -0.410447      0.166655
Pb       4.04124     11.41448      0.30929        -0.864166      0.004875     -0.996790
Pb      15.06412     11.55379      4.21058         0.085194     -0.354028     -0.300603
Pb       0.13505     11.42061     16.92880        -0.009020     -0.314620      0.108633
Pb       3.72737     11.38918      8.53377        -0.007881      0.042525     -0.319393
Pb      14.99661     11.40714      8.54802         0.280144     -0.184719      0.054608
Pb       3.73146     11.29034     12.72711         0.202116     -0.071401     -0.384905
Pb      15.19039     11.09958     12.84660        -0.230688      0.537322     -0.335749
Pb       7.56411      3.76993      4.15169         0.231989      0.111581      0.148497
Pb       7.54834      3.77489      0.03509         0.388078     -0.108812     -0.155560
Pb       7.59189     15.17779      4.22251         0.234203      0.538709     -0.573198
Pb       7.63727     15.12888      0.01620         0.200319     -0.041610     -0.136131
Pb       7.69263      3.81571      8.30531         0.185738     -0.107336      0.251461
Pb       7.60443     15.08941      8.34836         0.076363      0.612327      0.655752
Pb       7.52855      3.84051     12.75259         0.696498     -0.217920     -0.144591
Pb       7.56917     15.19399     12.77529         0.701613     -0.353781     -0.106628
Pb       7.72176      7.66304      4.27003        -0.533560     -0.563293     -0.542473
Pb       7.46920      7.72298      0.04819         0.731172     -0.154170     -0.224368
Pb       7.54449      7.62357      8.34115         0.438859     -0.035452      0.254861
Pb       7.46093      7.49821     12.64650         0.712786      0.427144      0.402598
Pb       7.51191     11.38003      4.24224         0.142853     -0.208071     -0.270061
Pb       7.64892     11.42890      0.02425        -0.095681     -0.178416     -0.483717
Pb       7.51409     11.54896      8.47701        -0.162646     -0.807825      0.111390
Pb       7.44054     11.25717     12.68324         0.635881      0.018837     -0.017400
Pb      11.43569      3.72715      4.10020        -0.118495      0.574733      0.284019
Pb      11.41509      3.65815      0.00040        -0.035489      0.363570     -0.201971
Pb      11.48777      0.00977      4.14968        -0.409406     -0.344055     -0.235529
Pb      11.50441     15.10391     16.91010        -0.547340      0.249037      0.102110
Pb      11.40019      3.80623      8.44718        -0.370205     -0.057834     -0.322010
Pb      11.25253     15.19368      8.39223         0.526952      0.196617      0.473513
Pb      11.36655      3.76113     12.81035        -0.033144     -0.375182     -0.113949
Pb      11.40608     15.09467     12.76309         0.237215      0.479726      0.014247
Pb      11.44189      7.78792      4.09059         0.009210     -1.215336      0.383270
Pb      11.32715      7.52928     16.91072         0.380069     -0.269751      0.255364
Pb      11.26512      7.49132      8.53117        -0.130237     -0.084115     -0.454034
Pb      11.30913      7.44696     12.82087        -0.007201      0.065326      0.168175
Pb      11.41064     11.34434      4.12262         0.139929      0.398838      0.022552
Pb      11.40301     11.48755     16.90342         0.079959     -0.182647     -0.189674
Pb      11.26537     11.49834      8.50183         0.343666     -0.397997      0.026612
Pb      11.36727     11.33545     12.70801        -0.025953      0.029418      0.353218
Ti       1.90956      1.94059      2.13120        -0.168669     -0.033397      0.264772
Ti       2.05206      1.82715     15.01492        -0.993477      0.763126      0.911475
Ti       1.81737     13.37576      2.24201        -0.088179     -0.007574      0.861452
Ti       1.90611     13.21632     14.92183         1.283940      0.225794      1.487161
Ti      13.34262      1.85436      2.17463        -0.011707      0.137045      0.178411
Ti      13.38517      1.83687     15.03418        -0.659260      0.088204     -0.151016
Ti      13.24802     13.23780      2.07879         0.267712      0.615035      0.248130
Ti      13.36167     13.22997     14.82943        -1.014302     -0.047856      1.323452
Ti       1.87708      1.82730      6.69500         0.429629      0.398754     -0.177562
Ti       1.80441     13.26456      6.58066         0.250575      0.572747      0.039711
Ti      13.26294      1.91452      6.53537         0.054616     -0.062900      0.539476
Ti      13.18755     13.25065      6.42137         0.732593      0.759992      0.343241
Ti       1.95242      1.82535     10.77815        -0.200141      0.722885      0.099711
Ti       1.85030     13.27705     10.77390         0.733299     -0.665364      0.599054
Ti      13.25837      1.89848     10.71698         0.115351     -1.256575      2.117349
Ti      13.33125     13.24989     10.82428        -0.479142      0.552009      0.740335
Ti       1.88753      5.74887      2.16434        -0.864226      0.257576      1.487393
Ti       1.92188      5.64175     14.92385        -0.038614     -0.148185     -0.180279
Ti      13.27740      5.68278      2.12335         0.012281      0.296804     -0.566796
Ti      13.35843      5.63074     15.01089        -0.660314      0.509558      1.740748
Ti       1.83688      5.63795      6.44738         0.307981      0.052369      0.349945
Ti      13.28816      5.71032      6.42600        -0.733180     -1.496094      0.345973
Ti       1.93055      5.65707     10.67355        -1.085554     -0.998618      0.068866
Ti      13.24937      5.63748     10.74335         0.515737     -0.457243      2.053764
Ti       1.88346      9.51959      2.27138        -0.339410     -0.119900     -1.707902
Ti       1.92361      9.44855     14.94718         0.555852      0.558332      1.678571
Ti      13.32161      9.44185      2.00039         0.436094      1.347398      1.075794
Ti      13.29342      9.46917     14.94131         0.479410     -0.744426      0.217453
Ti       1.73910      9.46391      6.62843         1.017500      0.093736      0.345507
Ti      13.16953      9.44933      6.56854         0.580223      0.545862      0.385023
Ti       1.83449      9.42702     10.67196         0.437290      0.476454     -0.095694
Ti      13.21110      9.40491     10.81181         0.541297      0.472197      0.725547
Ti       5.60009      1.90338      2.26795         0.728748     -0.473566      1.950672
Ti       5.76168      1.85448     14.89808        -0.510206      0.397898      0.381234
Ti       5.54866     13.34215      2.37485         0.430725     -0.094186     -0.092797
Ti       5.68490     13.23842     14.96775        -0.311737     -0.210375     -0.233816
Ti       5.73371      1.76214      6.45239        -1.134262      1.270812      0.406942
Ti       5.66278     13.22132      6.33825        -1.076860      0.405970      2.264498
Ti       5.76480      1.88654     10.71812        -0.249135     -1.023283      0.449238
Ti       5.71653     13.25118     10.82004         0.364086     -0.187748     -0.016289
Ti       5.64356      5.69127      2.33701         0.627801      1.054172      2.841170
Ti       5.70501      5.71870     14.97069        -0.574087     -0.548385     -0.609023
Ti       5.71964      5.68458      6.38859        -0.445392     -0.438173     -0.151934
Ti       5.69555      5.59555     10.52038         1.004226      0.692236      0.441318
Ti       5.66952      9.48766      2.38387         0.125685     -0.013347      0.902101
Ti       5.67516      9.50219     15.00038         0.556312      0.312033      0.047279
Ti       5.59173      9.47367      6.36100         0.562787      0.584840      1.318163
Ti       5.60609      9.41061     10.58147         1.536939      0.477573      1.394310
Ti       9.47672      1.83934      2.19218        -0.111855      0.144536      1.675389
Ti       9.45774      1.84876     14.95716         0.510367     -0.331498      0.664065
Ti       9.40804     13.19938      2.23974         1.041207      1.451531      0.029504
Ti       9.47469     13.24654     14.87837         0.479313      0.205347      0.854547
Ti       9.48459      1.93115      6.33336         1.333332     -0.157245      0.021250
Ti       9.45622     13.26953      6.34976         1.379109      0.311820     -0.577314
Ti       9.47987      1.80692     10.78351         0.261576      0.386531      0.218041
Ti       9.55397     13.23260     10.73140        -1.019163      0.220091      2.000813
Ti       9.51032      5.63107      2.19295        -0.292040      0.332604      0.951298
Ti       9.40159      5.64325     15.09189         1.007597      0.472958      0.022407
Ti       9.52489      5.71240      6.21607         1.189047     -0.441387      1.517662
Ti       9.49247      5.60366     10.74987        -0.343873     -0.340373      0.385956
Ti       9.52049      9.46771      2.17877        -0.194717     -0.250899     -0.208655
Ti       9.54144      9.44735     15.00796        -0.795592      0.556059      0.693323
Ti       9.43628      9.50060      6.51314        -0.011965     -0.370988      0.354250
Ti       9.49505      9.40211     10.79988        -1.067912     -0.230618     -0.028627
O       2.01726      2.00936      0.34043        -0.217513     -0.567401      0.831176
O       2.02078      1.89537     13.26653        -0.215019     -0.285891     -0.840005
O       1.90649     13.33141      0.50837         0.050128     -0.067904     -0.480539
O       1.97064     13.26610     13.17413        -0.014195     -0.178353     -1.021330
O      13.32307      1.82571      0.40162         0.132156      0.234496      0.240317
O      13.30987      1.83221     13.29087         0.151782      0.092039     -0.255931
O      13.20174     13.28985      0.27476         0.379487     -0.431467      0.906904
O      13.32635     13.19322     13.07976         0.048192      0.454564     -0.136129
O       1.85332      1.87417      4.88129        -0.267701      0.002848      0.197554
O       1.90510     13.32162      4.78764        -0.721626     -0.142623      0.225590
O      13.29650      1.91492      4.73478         0.137417     -0.223543     -0.134723
O      13.21764     13.38897      4.65355         0.236615     -0.576546     -0.128962
O       1.86826      1.76451      9.04086         0.227578      0.335800     -1.314744
O       2.00286     13.27036      9.01292        -0.567663      0.004168     -0.774122
O      13.22195      1.80353      8.99091         0.114445      0.111875     -1.191674
O      13.24842     13.28480      9.04629         0.028130     -0.362697     -0.466824
O       1.85000      5.71194      0.42045         0.417307      0.058417     -0.481447
O       1.78567      5.56568     13.12462         0.878555      0.171854      0.487394
O      13.25126      5.66784      0.34653         0.024626     -0.176604      0.108457
O      13.32651      5.72439     13.28013         0.028260     -0.351258     -1.393444
O       1.82843      5.70526      4.65564         0.180629     -0.050271      0.343714
O      13.23411      5.65709      4.68721         0.125178      0.263820     -0.726976
O       1.81696      5.60269      8.91566         0.190727      0.293183      0.154645
O      13.25288      5.63277      9.04683         0.115916      0.099484     -1.777608
O       1.89615      9.39801      0.44996        -0.166906      0.570993      0.754904
O       1.87712      9.54919     13.21522         0.530581      0.075738     -1.338446
O      13.42067      9.62736      0.28715        -0.108100     -0.209706     -0.466210
O      13.36126      9.32527     13.13731        -0.177788      0.612176      0.274933
O       1.79488      9.50885      4.85461        -0.117388     -0.332399     -0.876660
O      13.34520      9.57238      4.81156        -0.491319     -0.424833     -0.159147
O       1.95766      9.48727      8.87943        -0.285717     -0.488697      0.413602
O      13.34958      9.44372      9.06879        -0.358228     -0.067628     -1.096113
O       5.51640      1.78277      0.55096         0.391210      0.613450     -1.193009
O       5.81120      1.95078     13.10832        -0.324577     -0.340759      0.814759
O       5.67170     13.33347      0.55448        -0.222461      0.009791      0.252924
O       5.67861     13.13213     13.14989        -0.065374      0.128733      0.664989
O       5.73360      1.85269      4.69997         0.069326     -0.143912     -0.157814
O       5.60004     13.17501      4.63216         0.349954      0.312638     -1.260942
O       5.68565      1.84889      8.98379         0.233732     -0.275860     -1.064219
O       5.71291     13.29523      9.02999         0.332588     -0.047130     -0.649125
O       5.57598      5.75180      0.62760         0.436284     -0.056524     -2.517117
O       5.82754      5.58965     13.19116        -0.840772      0.346645      0.144355
O       5.73076      5.72838      4.62773        -0.366131     -0.197411      0.518297
O       5.84814      5.68205      8.73574        -0.614493     -0.206988      0.781207
O       5.59806      9.52177      0.60370         0.407737     -0.388261     -0.906616
O       5.74581      9.48886     13.24377        -0.562313      0.135988     -0.276521
O       5.67988      9.61019      4.62039         0.059193     -0.107055     -0.639905
O       5.77516      9.36642      8.84215        -0.528904      0.241907     -0.235262
O       9.43336      1.89982      0.48506        -0.026136      0.029941     -1.793400
O       9.35543      1.82007     13.19353         0.259845      0.143863      0.338916
O       9.45240     13.22959      0.44605        -0.067150      0.006756      0.170747
O       9.52533     13.26182     13.13870        -0.145131     -0.149847     -0.474664
O       9.46629      1.96364      4.55566         0.113856     -0.525608      0.487267
O       9.53174     13.30177      4.57559        -0.130190     -0.246931      0.339668
O       9.53687      1.83758      9.02051         0.033207      0.059638     -0.272186
O       9.52866     13.29857      8.98874        -0.156339     -0.282765     -1.594826
O       9.55808      5.66918      0.42288        -0.583069     -0.067119     -0.644576
O       9.40036      5.67110     13.31417        -0.016875     -0.077272     -0.305784
O       9.57799      5.66312      4.48304         0.006178      0.205264      0.126252
O       9.49221      5.56633      8.99561         0.232433      0.250334     -0.186617
O       9.45962      9.49866      0.41677        -0.043817      0.157630      0.324537
O       9.49220      9.40092     13.26935         0.110360     -0.069159     -1.018676
O       9.51542      9.50956      4.76511         0.329382      0.049270     -0.848115
O       9.47361      9.32358      9.04736         0.025136      0.293237     -0.973404
O       3.69068      1.99732      2.72235         0.730712     -0.217465     -0.140884
O       3.85186      1.75195     15.31940         1.150546     -0.176012     -0.078266
O       3.66877     13.27427      2.70796         0.882873     -0.350320     -0.357232
O       3.81288     13.34051     15.37396         0.354448      0.335190     -0.268741
O       0.10643      1.96505      2.71607        -1.483567     -0.287380     -0.675348
O       0.05685      1.90451     15.38827         0.089323      0.084898     -0.183294
O      15.15430     13.22636      2.41832        -0.248506      0.003259      0.502523
O       0.00831     13.18134     15.28349         0.185832     -0.008598     -0.015648
O       3.81395      1.76849      6.75346         0.137444      0.363859      0.531227
O       3.79859     13.27628      6.82366        -0.010020     -0.048282      0.327869
O      15.14049      1.87209      6.98844        -0.052950     -0.130984     -0.119409
O      15.14398     13.17853      6.98783         0.290478      0.328140     -0.389724
O       3.84334      1.70481     11.12750         0.322152     -0.141445      0.161403
O       3.78048     13.38840     10.94226         0.383961      0.157701      0.967352
O       0.05703      1.95296     11.15424        -1.046808     -0.020175     -0.168007
O       0.00590     13.17866     11.09804         0.098480     -0.026001     -0.041565
O       3.74013      5.82793      2.58250         0.279581     -0.351942      0.345858
O       3.78967      5.80286     15.32139         0.372724      0.097001      0.100269
O      15.14153      5.67980      2.52426         0.777133      0.393007      0.107622
O       0.05372      5.53508     15.36826        -0.231196      0.273448     -0.141737
O       3.78866      5.61360      6.74156         0.638811      0.221011      0.210446
O      15.17066      5.66107      6.78867        -0.185319      0.022111      0.453326
O       3.79905      5.66884     10.95191         0.897071      0.285814      0.190604
O       0.03663      5.43710     11.08407        -0.724720      0.749129     -0.253085
O       3.77162      9.60366      2.65640         0.108953     -0.363589      0.150162
O       3.84636      9.38440     15.44823        -0.980623      0.228680     -0.508521
O      15.15176      9.53802      2.69651        -0.285549      0.075937     -0.579693
O       0.01285      9.59530     15.24544         0.174555      0.462940      0.193313
O       3.77257      9.45655      6.79943        -0.197262     -0.222770      0.170112
O      15.10824      9.36089      6.92651        -0.355983      0.167247      0.214098
O       3.82339      9.37017     11.13702        -0.946382     -0.029485     -0.295954
O       0.01467      9.50942     11.15213        -0.210200     -0.255782     -0.488753
O       7.55620      1.88761      2.59910        -0.670969     -0.338193     -0.279451
O       7.54922      1.96600     15.48679         0.054249     -0.216856     -0.287031
O       7.56724     13.42571      2.65773        -0.441769     -0.575988     -0.156755
O       7.61201     13.15242     15.35164        -0.574791      0.068093     -0.080950
O       7.72563      1.86832      6.86097        -1.443159     -0.376208     -0.172851
O       7.62456     13.28578      6.70575        -1.020275     -0.029044      0.285472
O       7.60154      1.99285     11.08006        -0.209353     -0.236464      0.061294
O       7.64151     13.06230     11.09045        -0.194892      0.067053     -0.173727
O       7.57561      5.76686      2.67322         0.309595     -0.210977     -0.617957
O       7.52410      5.64310     15.36358         0.052049     -0.025149      0.831784
O       7.70567      5.64694      6.68189        -1.082614      0.102103     -0.006077
O       7.53909      5.56006     11.00610        -0.310414     -0.015211      0.052901
O       7.68093      9.51168      2.66410        -0.425339     -0.082801     -0.110390
O       7.58730      9.62642     15.35245        -0.173715     -0.117551      0.505773
O       7.52884      9.39265      6.75553         0.555839      0.366299      0.016515
O       7.55231      9.38972     11.08099         0.038478      0.500795      0.001066
O      11.42579      1.92026      2.55209         0.477525     -0.100006     -0.304634
O      11.36627      1.85479     15.38791         0.003111     -0.326999     -0.317848
O      11.40039     13.23636      2.51182        -0.331935      0.463084      0.080389
O      11.41347     13.50059     15.28706        -0.383162     -1.090419     -0.530690
O      11.37349      1.83284      6.87841         0.336172      0.091112     -0.211030
O      11.34356     13.20113      6.77853        -0.169294     -0.136847      0.327160
O      11.37471      1.72752     11.24913         0.053354      0.528783     -0.395630
O      11.40886     13.36559     11.15489        -0.212534     -0.165461     -0.163018
O      11.38893      5.58207      2.50423         0.493357      0.296676      0.102393
O      11.31506      5.88036     15.26274         0.592162     -0.692814     -0.007102
O      11.39400      5.66163      6.85186        -0.306489      0.081290      0.063223
O      11.41025      5.61591     11.18259        -0.562901      0.351320      0.004880
O      11.44278      9.50803      2.46451        -0.086320      0.130526      0.321873
O      11.46646      9.36665     15.34360        -0.915086      0.067598     -0.141174
O      11.34407      9.46906      6.93250         0.319467      0.243754      0.120466
O      11.37970      9.31164     11.15552         0.047364     -0.158967      0.029831
O       1.91897      3.84072      2.60333        -0.138533      0.091896     -0.306207
O       2.06941      3.79177     15.34601        -0.146495     -0.322052      0.039311
O       1.89737      0.05386      2.80526        -0.420080     -0.044808     -1.252587
O       1.80692     15.11079     15.43714         0.608730      0.566672     -0.892529
O      13.32016      3.81823      2.51089         0.116711     -1.326540      0.114922
O      13.25877      3.76683     15.31281        -0.218437     -0.293355      0.265898
O      13.35209     15.16850      2.53841        -0.152617      0.567068      0.033120
O      13.41686     15.08517     15.33704         0.049222      1.197509     -0.196036
O       1.92555      3.78766      6.96007        -0.249015     -0.604874      0.045567
O       1.80896     15.15721      7.02845         0.037495     -0.666867     -0.358374
O      13.25356      3.76616      6.92311         0.167565      0.012896     -0.147276
O      13.30689     15.06816      6.86863        -0.116858      1.334042      0.100632
O       2.04273      3.72083     11.04271         0.105458      0.501334      0.186909
O       1.76293     15.19721     11.20907         0.541311     -1.406200     -0.012824
O      13.19552      3.72484     11.14996         0.088934      0.321171      0.100476
O      13.37486      0.01670     11.21464         0.362888     -0.639869     -0.241925
O       1.92609      7.69442      2.64159        -0.509080     -1.120995      0.342206
O       1.72429      7.62319     15.20613         0.585337     -1.046063     -0.029424
O      13.27443      7.63004      2.40372        -0.045430     -0.298809      0.522603
O      13.42456      7.56562     15.38565        -0.057816      0.089204     -0.366852
O       1.90732      7.50838      6.94580        -0.147892      0.491550     -0.277961
O      13.20958      7.48171      6.95819         0.255496      1.952631     -0.078587
O       1.90272      7.53999     11.11678        -0.236345     -0.087485     -0.415499
O      13.36272      7.50103     11.19654        -0.172895     -0.054397     -0.899235
O       1.83191     11.33817      2.67977        -0.149388      1.732668      0.019137
O       2.00284     11.42330     15.40356        -0.121397     -0.834657     -0.242348
O      13.23532     11.38885      2.57547         0.394926     -0.248417     -0.190287
O      13.17644     11.37652     15.17843         0.025993      0.072694      0.069228
O       1.92806     11.33187      6.90269        -0.336290      0.671899      0.160716
O      13.30406     11.43762      6.86913        -0.290028     -2.073166      0.347981
O       2.01663     11.30023     10.96251         0.024572      0.563375      0.601352
O      13.14942     11.37382     11.15995         0.430761     -1.001158     -0.397421
O       5.67013      3.81004      2.70232        -0.369208     -0.159634     -0.647071
O       5.60626      3.77984     15.36367         0.054364     -0.084558      0.175187
O       5.47884      0.02693      2.69838         0.563511     -0.094298     -0.099673
O       5.80985     15.15796     15.37469        -0.098111      0.120597     -0.464103
O       5.70913      3.70463      6.80701         0.296476      0.561527      0.009492
O       5.70621     15.13384      6.90005         0.547204     -0.680245     -0.400610
O       5.54099      3.74068     10.98089         0.304865      0.998532     -0.146360
O       5.89658     15.10444     11.23452        -0.719468      0.638726     -0.629774
O       5.77885      7.66162      2.76543        -0.590892     -0.237742     -0.422472
O       5.75245      7.60712     15.35161         0.231220     -0.324703      0.334812
O       5.63417      7.59305      6.77401         0.248017     -0.745414     -0.268490
O       5.70124      7.54206     11.13549        -0.259466     -0.988627     -0.931069
O       5.74598     11.43312      2.57968         0.007684      0.159875      0.046372
O       5.59189     11.39141     15.49285         0.170724      0.151264     -0.162997
O       5.66736     11.36310      6.84812         0.507910      0.462432     -0.024019
O       5.63561     11.31424     11.01565        -0.199253     -0.332670      0.128064
O       9.42200      3.78725      2.55760         0.071373     -0.438305     -0.230992
O       9.44862      3.73991     15.43174         0.128274      0.442455     -0.168445
O       9.51159     15.19210      2.54350         0.014916     -0.517026      0.199206
O       9.35201     15.14836     15.34345        -0.017939      0.561928     -0.044478
O       9.64954      3.79850      6.70033        -0.657697     -0.184535      0.142186
O       9.63492     15.16735      6.74245        -1.057217     -0.275772     -0.242724
O       9.51400      3.74040     11.24860         0.303346      0.123385     -0.202623
O       9.33542     15.11599     11.11991         0.158384      0.158166      0.003179
O       9.65152      7.54209      2.64831        -0.743895      1.249559     -0.487082
O       9.35391      7.66051     15.55113        -0.091433     -1.186740     -0.508716
O       9.57319      7.57287      6.78796        -0.301224     -0.148114     -0.022034
O       9.42001      7.45466     11.17929         0.340645      0.395478     -0.066627
O       9.56684     11.35656      2.56291        -0.538044      0.025625      0.125165
O       9.61970     11.39006     15.32325         0.087860     -0.052213      0.033496
O       9.43652     11.38770      6.86663         0.014081      0.004453      0.223379
O       9.65459     11.29481     11.07618        -0.217806      0.151441     -0.214315
