  # total energy = -7868.52421234 
CRSYTAL
PRIMVEC
    15.010000000000000    0.0000000000000000    0.0000000000000000
     0.0000000000000000   15.010000000000000    0.0000000000000000
     0.0000000000000000    0.0000000000000000    16.400000000000000
PRESSURE
18.3073 18.4125 11.7111 0.239445 -0.097669 -0.033004
PRIMCOORD
320 1
Pb       3.94964      3.68857      4.26898        -0.883655      0.271048     -0.467037
Pb       3.81166      3.77093      0.09205        -0.320659     -0.066987     -0.759622
Pb       3.70552      0.11272      4.11956         0.108243     -0.859346     -0.200113
Pb       3.80662      0.01816     16.35947        -0.755452     -0.286484      0.101400
Pb      14.92694      3.64548      4.08250         0.408579      0.574840     -0.291176
Pb       0.00461      3.66599     16.34253        -0.012804      0.383825      0.315086
Pb      14.94722      0.04415      4.19792         0.636037     -0.202224     -0.936977
Pb      14.90387     14.98243      0.03538         0.716136      0.636237     -0.339307
Pb       3.79234      3.64970      8.27848        -0.046500      0.536413     -0.147017
Pb       3.82492     14.93675      8.26469        -0.232643      0.007097     -0.298046
Pb       0.01504      3.74267      8.26935         0.364447      0.176105     -0.652435
Pb      14.93951     14.90333      8.15635         0.735649      0.291647      0.139021
Pb       3.81918      3.70785     12.23373        -0.395445      0.675234     -0.217241
Pb       3.75124      0.01034     12.42675        -0.384799     -0.154827     -0.746952
Pb       0.00017      3.68383     12.30925         0.258369      0.362122     -0.065895
Pb       0.00785      0.01141     12.28329         0.143544     -0.389399      0.046664
Pb       3.59127      7.56388      4.07086         0.381006     -0.445967      0.269259
Pb       3.77025      7.42278      0.16701        -0.081952      0.551351     -0.673827
Pb      14.93892      7.49017      4.09745         0.210119     -0.040637      0.020679
Pb      14.97068      7.50840      0.06258        -0.119355      0.130440     -0.428194
Pb       3.70387      7.57849      8.07417         0.214652     -0.755626      0.432768
Pb      14.99822      7.54005      8.19467         0.375109     -0.509137      0.112182
Pb       3.75770      7.56134     12.29402        -0.016155     -0.224247     -0.440751
Pb       0.02908      7.36185     12.30817         0.174705      0.424573     -0.370254
Pb       3.61457     11.20180      4.16124         0.213372      0.658385     -0.157865
Pb       3.74389     11.05101     16.31664        -0.182996      1.089667      0.432595
Pb      14.97398     11.20098      4.08839         0.161495      0.398027      0.189249
Pb      14.94717     11.36452      0.06464         0.117953     -0.652698     -0.668780
Pb       3.69058     11.10300      8.22884         0.188784      0.491663     -0.656435
Pb      14.98545     11.15978      8.14945        -0.080108      0.521004     -0.065096
Pb       3.76345     11.28056     12.34284         0.025159     -0.222262     -0.481216
Pb       0.00595     11.27162     12.32035        -0.000604      0.334504     -0.365767
Pb       7.49707      3.71297      4.12651        -0.059428      0.062373      0.307709
Pb       7.49708      3.83730     16.35800         0.568485     -0.775479     -0.068001
Pb       7.47534     14.87550      4.19232        -0.516841      1.074236      0.186830
Pb       7.34165     14.99204     16.37357         0.780866      0.250340      0.145910
Pb       7.50524      3.66593      8.22921        -0.104823      0.410553     -0.574015
Pb       7.49737      0.00131      8.26092         0.075227     -0.133732     -0.743713
Pb       7.44841      3.71585     12.27370         0.301932      0.701578     -0.571659
Pb       7.56419     14.87018     12.38287        -0.125763      0.305155     -0.613625
Pb       7.31591      7.51645      3.99786         0.773932     -0.100703      0.737387
Pb       7.45998      7.43280      0.02251         0.467132      1.041834      0.176491
Pb       7.48081      7.49398      8.33573         0.387503     -0.246176     -1.038434
Pb       7.55996      7.44732     12.45353        -0.416312      0.044147     -1.076721
Pb       7.48043     11.31996      4.06527        -0.476787     -0.347917      0.580897
Pb       7.52203     11.26236      0.05178        -0.002844     -0.174406     -0.456684
Pb       7.44011     11.20574      8.21714         0.555733      0.336541      0.222787
Pb       7.53671     11.18096     12.32054        -0.409281      0.243391     -0.169890
Pb      11.17514      3.74772      4.11458         0.481220      0.251791      0.097469
Pb      11.31558      3.81520     16.36949        -0.417563     -0.583883      0.025398
Pb      11.40288     14.95801      4.19707        -0.513593      0.624297     -0.428547
Pb      11.12027     14.88975      0.06264         0.206364      1.365001      0.277486
Pb      11.42391      3.74335      8.12824        -1.265991      0.414517      0.107840
Pb      11.32726     14.89220      8.22441        -0.710326      0.462368     -0.066873
Pb      11.32761      3.70322     12.20071        -0.595301      0.256127      0.289066
Pb      11.29871      0.10572     12.28211        -0.595605     -0.461618     -0.208834
Pb      11.23768      7.45890      4.15044        -0.499638      0.146069      0.190774
Pb      11.14125      7.44588      0.08885         0.457468      0.536412     -0.056736
Pb      11.11414      7.44040      8.18212         0.038595      0.446519     -0.181036
Pb      11.27564      7.34940     12.28447         0.035435      0.593110     -0.222401
Pb      11.29479     11.26685      4.13212         0.041733     -0.071490      0.070818
Pb      11.21566     11.16332      0.02764        -0.005616      0.199906      0.173620
Pb      11.11892     11.20518      8.26793         0.344259     -0.112987     -0.485530
Pb      11.19498     11.29843     12.25365         0.046905     -0.077393     -0.266986
Ti       1.96120      1.91798      2.14306        -1.449113     -0.819872      0.413104
Ti       1.95479      1.91427     14.52418        -0.894471     -0.090283     -0.158256
Ti       1.82215     13.14833      2.02793         0.503130     -0.081884      1.295360
Ti       1.83171     13.15927     14.35675        -0.571749     -0.297938      1.272703
Ti      13.05602      1.88384      2.07555         0.800013      0.249016      0.629092
Ti      13.12872      1.85342     14.36555        -0.404660      0.024293      1.335516
Ti      13.15590     13.16745      2.07128        -0.212000     -0.497337      0.980848
Ti      13.02920     13.12634     14.40912         1.196498      0.015324     -0.041324
Ti       1.85417      1.89580      6.24520         0.021808      0.024495      0.563590
Ti       1.92090     13.14970      6.18272        -0.553301     -0.362052      1.053583
Ti      13.13105      1.96794      6.20135         0.165260     -0.408792      0.593464
Ti      13.15542     13.15202      6.23002        -0.222254     -1.664549      1.180182
Ti       1.83011      1.89403     10.28882         0.619122     -1.008113     -0.188377
Ti       1.83382     13.12172     10.23789        -0.380967      0.640217      0.471927
Ti      13.06794      1.86213     10.28377         0.028790      0.236850      0.003266
Ti      13.05779     13.09942     10.24888         0.519577     -0.320131      0.414224
Ti       1.89687      5.61102      2.05623        -0.741629     -0.128547      1.675740
Ti       1.90982      5.70287     14.39391        -0.056691     -0.989080      0.427192
Ti      13.15964      5.65755      2.19181        -0.436732     -1.276651      0.078262
Ti      13.13553      5.69861     14.47703         0.433138     -0.763053      0.190087
Ti       1.89275      5.59187      6.11559        -0.469757     -0.448241      0.474035
Ti      13.13851      5.70097      6.22330        -0.127858     -0.586002     -0.133691
Ti       1.93364      5.63089     10.28907        -0.038240      0.272416      0.053834
Ti      13.15196      5.66430     10.26241        -0.158577     -0.769207      0.558805
Ti       1.77853      9.37825      2.04117        -0.352667      0.612122      1.614952
Ti       1.88499      9.39451     14.33565        -0.254971      0.144308      0.872817
Ti      13.01338      9.37330      2.20965         0.840426      0.578403     -0.071529
Ti      13.15356      9.38542     14.36441        -0.511961      0.079408      0.988369
Ti       1.85657      9.35242      6.15014         0.198480      0.431612      0.865816
Ti      13.09478      9.33712      6.31925        -0.465879      1.579735      0.080091
Ti       1.87993      9.38214     10.24354         0.339831     -0.378984      0.913937
Ti      13.14179      9.36457     10.30835        -0.386036      0.231080     -0.370328
Ti       5.62625      1.85342      1.97342         0.473116     -0.606084      1.042872
Ti       5.66505      1.95563     14.25576        -0.248950      0.023000      2.279523
Ti       5.51439     13.09686      2.13817        -0.731728      0.155996      0.980920
Ti       5.58476     13.15324     14.44397        -0.269142     -0.812742     -0.001929
Ti       5.60707      1.84439      6.20324         0.912411      0.096978      0.671761
Ti       5.62442     13.03996      6.23331        -0.225489      0.873150      0.037405
Ti       5.64704      1.77529     10.35614        -1.213075      0.762548     -0.234388
Ti       5.57501     13.08110     10.36300         0.111000     -0.576331     -0.007688
Ti       5.64764      5.61695      2.06135        -0.231380      0.044563      1.163560
Ti       5.65059      5.73185     14.48734        -0.803779     -0.807608     -0.689818
Ti       5.57120      5.61134      6.19764         0.513396     -0.005618      0.735427
Ti       5.62579      5.68605     10.16585         0.171852     -1.255510      1.306905
Ti       5.51440      9.40676      2.20506         0.331978     -0.011464      0.487592
Ti       5.67481      9.44105     14.33082        -0.477433      0.021568      0.401251
Ti       5.72503      9.34539      6.19023        -1.808407     -0.135733      0.536053
Ti       5.66429      9.28890     10.25236        -0.513509      1.241429      1.035983
Ti       9.34610      1.88698      2.19643         0.082500      0.263263     -0.513567
Ti       9.36617      1.93701     14.33934         1.106282     -0.081142      0.845953
Ti       9.33604     13.22385      2.18750         0.445739     -0.574131     -0.128990
Ti       9.33471     13.23730     14.44537         0.120834     -1.468675      0.122324
Ti       9.41383      1.90653      6.20809        -1.209205      0.103668      1.335649
Ti       9.42214     13.20736      6.15463        -0.386970     -0.726040      1.767435
Ti       9.29422      1.89204     10.24783         0.905846     -0.480512      0.760153
Ti       9.27998     13.10619     10.26255         0.338069      0.301230      0.565465
Ti       9.37596      5.66672      2.17822        -0.008779     -0.033662      0.399999
Ti       9.37753      5.66578     14.33634         0.234064     -1.171161      0.701608
Ti       9.28942      5.66690      6.15163        -0.118912     -0.183817      1.669472
Ti       9.39206      5.60861     10.18988        -0.882840      0.027266      0.239133
Ti       9.28061      9.45757      2.19218         0.404486     -0.884561      0.098814
Ti       9.43386      9.39944     14.41449        -0.609725      0.907793      0.666136
Ti       9.32886      9.41881      6.19264         0.109127     -0.397876      0.814013
Ti       9.39257      9.33313     10.42111        -0.626739      0.143638     -0.387247
O       2.01901      1.87970      0.36845        -0.028347      0.139119     -1.055046
O       1.87342      1.89878     12.72725        -0.050288      0.006327     -0.843901
O       1.64583     13.12961      0.25318         0.313976     -0.110412     -0.365774
O       1.75307     13.12032     12.57780         0.468085     -0.016296     -0.769932
O      13.06805      1.76506      0.32586        -0.135184      0.426367     -1.191729
O      13.06545      1.84867     12.56993        -0.020080      0.084248     -0.699938
O      13.32997     13.21022      0.28383        -0.412423     -0.285621     -0.355060
O      12.93146     13.05131     12.60455        -0.004149      0.083944     -0.455688
O       1.79889      1.92166      4.44591         0.267951     -0.059446     -0.778373
O       1.75859     13.11970      4.44074         0.409819      0.264848     -0.700672
O      13.11430      1.99769      4.42876         0.280719     -0.573718     -0.659694
O      13.07092     13.12177      4.45927        -0.126918      0.080410     -1.225923
O       1.85128      1.89768      8.49375        -0.172491     -0.097305      0.312249
O       1.86915     13.19251      8.44675        -0.052507     -0.054609      0.216883
O      12.96865      1.92397      8.48642         0.698089     -0.148959     -0.191064
O      13.09928     13.11107      8.45057         0.195623      0.360470      0.074847
O       1.73313      5.76326      0.31073         0.255655      0.083637     -1.129695
O       1.87329      5.57372     12.61243        -0.048782      0.176460     -0.334053
O      13.13507      5.65005      0.38996        -0.110878      0.221517     -0.779086
O      13.14035      5.62657     12.69005        -0.234175      0.243007     -0.799106
O       2.03155      5.54680      4.32696        -0.170380      0.101363     -0.093334
O      13.10094      5.64896      4.44765         0.088853      0.134034     -0.863649
O       1.90234      5.66006      8.51583        -0.403315     -0.196948     -0.250539
O      13.15494      5.60814      8.49637        -0.040334      0.094644     -0.592524
O       1.97434      9.34371      0.29439        -0.522590     -0.200106     -1.044280
O       1.90808      9.49689     12.55540        -0.346735     -0.291431     -0.746178
O      12.95599      9.38247      0.45193         0.337495     -0.279865     -0.697018
O      13.10908      9.30064     12.60862        -0.026491      0.437860     -1.087757
O       1.74789      9.40942      4.37757         0.026992     -0.337497     -0.136880
O      13.15106      9.36578      4.53570        -0.174510     -0.013537     -1.095749
O       1.96488      9.26622      8.44503        -0.463706      0.421524     -0.329098
O      12.98606      9.36310      8.50321         0.408548     -0.241327      0.127762
O       5.53687      1.78406      0.16395         0.399622      0.385820      0.640474
O       5.51464      1.88871     12.50872         0.266508     -0.132414     -0.884727
O       5.53998     13.15128      0.36077         0.453653     -0.022460     -1.092965
O       5.54476     13.08788     12.65697         0.013957      0.119275     -0.409549
O       5.69945      1.97082      4.41044        -0.449821     -0.201260     -0.445120
O       5.55290     13.03162      4.45996        -0.020900      0.427052     -0.316543
O       5.60945      1.77143      8.55740        -0.110326     -0.148417     -0.565480
O       5.65445     13.22075      8.55902        -0.143416     -0.218053     -0.424470
O       5.74735      5.77410      0.25745        -0.075312     -0.502256     -0.270745
O       5.75479      5.69252     12.72237        -0.321859      0.027683     -1.058121
O       5.54691      5.54309      4.38132        -0.130446      0.012170     -0.748768
O       5.45345      5.67680      8.43603         0.664414      0.095684     -0.583728
O       5.48859      9.41607      0.44783         0.235026      0.003811     -1.421484
O       5.55391      9.43098     12.54797         0.120365     -0.208289      0.254121
O       5.64146      9.34338      4.42555        -0.014833      0.210128     -1.017012
O       5.57301      9.27999      8.46139         0.312045      0.356304     -0.283537
O       9.36143      1.98742      0.40871        -0.144038     -0.158657     -0.219031
O       9.35345      1.89143     12.57050         0.155209     -0.137812     -0.789310
O       9.25357     13.27255      0.40911        -0.424038     -0.351661     -0.836609
O       9.31112     13.14022     12.63029         0.651489      0.087766      0.370565
O       9.27603      1.92759      4.46574        -0.007201     -0.367893     -1.239917
O       9.58530     13.19863      4.39383        -0.440518      0.043855     -1.031895
O       9.36123      1.88953      8.48672        -0.028364     -0.037655     -0.522538
O       9.26118     13.11719      8.49812        -0.049311      0.059971     -0.805216
O       9.32480      5.60822      0.36784        -0.017868     -0.061342     -0.525324
O       9.25846      5.56744     12.56005         0.383130      0.393204      0.068457
O       9.29831      5.73594      4.40564        -0.049234     -0.041389     -1.098797
O       9.31996      5.67867      8.40444         0.276696     -0.039913      0.180477
O       9.40029      9.48191      0.39853        -0.200344     -0.208571     -0.606995
O       9.29191      9.41010     12.63168         0.696828     -0.078748     -0.247736
O       9.18153      9.30347      4.46444         0.304475      0.347396     -1.442126
O       9.31968      9.39803      8.62388        -0.019704     -0.259762     -0.862094
O       3.83045      1.93933      2.48547        -0.806548      0.380244      0.081336
O       3.79277      1.81577     14.67010         0.036597      0.071880     -0.047557
O       3.64744     12.91517      2.46344         0.160144      0.734625     -0.244574
O       3.69871     13.19382     14.68540         0.340349      0.036061     -0.042770
O      14.98389      1.88074      2.33340         0.487280      0.005980      0.372260
O      14.99437      1.93650     14.71404         0.241160      0.100446      0.046927
O       0.00577     13.28134      2.49959        -0.723482     -0.270278     -0.147255
O      14.94271     13.09993     14.49703        -0.209812     -0.418520      0.466341
O       3.72823      2.09532      6.48324        -0.046135     -0.372849     -0.275078
O       3.74409     12.95018      6.51054        -0.020423      0.309127      0.265185
O      14.96695      1.83314      6.56977        -0.042244     -0.321230      0.047713
O       0.00003     13.12693      6.55037        -0.200471      0.745540     -0.032589
O       3.71901      1.91751     10.53750        -0.280337     -0.598995      0.424698
O       3.67406     13.14336     10.62973         0.286048     -0.132760      0.026161
O      14.92753      1.87136     10.63086         0.224043      0.252086     -0.152908
O      14.93381     13.17664     10.57793        -0.264067     -0.106154      0.224934
O       3.77427      5.73500      2.10095        -0.483477     -0.566398      0.360790
O       3.79315      5.70475     14.80515        -0.539219      0.180643      0.113978
O      14.98681      5.59344      2.49445         0.185926      0.414239     -0.155123
O       0.00237      5.62647     14.70103        -0.374472      0.256852      0.096068
O       3.71856      5.48450      6.53242         0.044262     -0.372412     -0.319576
O       0.01138      5.78249      6.41763         0.004224      0.132946      0.278548
O       3.78064      5.60938     10.62684        -0.210897      0.044712      0.396578
O      15.00221      5.58899     10.61864        -0.097318      0.158929      0.067332
O       3.62267      9.42791      2.52184         0.369655     -0.185020     -0.250113
O       3.76458      9.39588     14.63956        -0.122652     -0.265277      0.005669
O      14.92437      9.35543      2.41085         0.239542     -0.508661     -0.162759
O      14.97398      9.36629     14.68933         0.553027      0.143070      0.178163
O       3.74406      9.46302      6.38757         0.089791      0.240820      0.288269
O      14.99508      9.27005      6.59592         0.259359     -0.280131     -0.021935
O       3.75441      9.34067     10.50523        -0.413992      0.473594      0.420999
O       0.00065      9.24386     10.42002        -0.479963      0.150222      0.519058
O       7.41540      1.71620      2.42486         0.774267      0.020088     -0.193356
O       7.51781      1.98582     14.53728        -1.012150      0.021583      0.502107
O       7.38343     13.26623      2.53708         1.166320     -0.479045     -0.465965
O       7.47011     13.07432     14.69930        -0.009715      0.165059      0.395483
O       7.44482      1.74927      6.58878         0.906192     -0.067858     -0.038084
O       7.50041     13.28639      6.38653         0.408673      0.170976      0.151305
O       7.45719      1.84785     10.63004         0.580631     -0.382693      0.185519
O       7.43792     13.10777     10.75306        -0.029744      0.481567     -0.230669
O       7.47616      5.71215      2.46003        -0.000946      0.022481     -0.420817
O       7.52241      5.53203     14.73535         0.456205      0.493398      0.119491
O       7.42165      5.67885      6.54122         0.059635      0.337640     -0.028328
O       7.51113      5.71504     10.43685        -0.849614      0.332361      0.364178
O       7.42196      9.39320      2.39883         0.059490     -0.157333     -0.008736
O       7.50483      9.61116     14.72647         0.119068     -0.665055      0.119840
O       7.47306      9.42875      6.61664         0.785309     -0.787747      0.171474
O       7.48012      9.28532     10.74800        -0.179249     -0.366921     -0.464945
O      11.23301      1.90754      2.50141        -0.593519      0.091375      0.034407
O      11.23913      1.73462     14.65052         0.084479      0.238441      0.093556
O      11.27914     13.03356      2.12993        -0.382949      0.233368      0.832479
O      11.20421     13.23478     14.90211        -0.269023     -0.280911     -0.657551
O      11.27320      2.05042      6.42456        -0.478506     -0.020645      0.164843
O      11.27420     13.05279      6.59049        -0.552428     -0.030299     -0.146104
O      11.17504      1.90247     10.54721         0.330747      0.312347      0.544510
O      11.16861     13.03534     10.42405         0.191989     -0.457262      0.685675
O      11.21397      5.60573      2.50815         0.380860      0.020292     -0.287078
O      11.23957      5.66392     14.75025        -0.506886      0.295862     -0.067485
O      11.19876      5.57970      6.39480         0.222222      0.006846      0.515428
O      11.22114      5.51778     10.51709         0.958518      0.300656      0.496509
O      11.18055      9.45625      2.54108        -0.172144      0.298183      0.270029
O      11.24928      9.36565     14.79607        -0.365928     -0.213708     -0.396453
O      11.18178      9.43883      6.50752         0.136806      0.073130      0.003776
O      11.21144      9.40714     10.60338         1.074258      0.391134      0.612314
O       1.88244      3.77071      2.28956         0.121436      0.099575      0.142178
O       1.90740      3.83135     14.82851         0.252535     -0.861773      0.069915
O       1.92213      0.01092      2.38578         0.423918      0.110503      0.277517
O       1.82309      0.00596     14.75493        -0.021882      0.241615     -0.249295
O      13.08141      3.75015      2.43214        -0.019580      0.291237     -0.159692
O      13.04890      3.73328     14.73431         0.079489      0.412693      0.003320
O      13.10891      0.01461      2.45729        -0.294324     -0.360037      0.291613
O      13.19981     14.99346     14.63597        -0.205631      0.030725      0.026632
O       1.68410      3.74233      6.57641         0.077216      0.611050     -0.095869
O       1.95387      0.04484      6.50726        -0.061099     -0.857952     -0.030731
O      13.23019      3.83481      6.47164         0.097802     -0.673020      0.622988
O      13.00949      0.01601      6.40849         0.193229      0.382614      0.312563
O       1.93687      3.74869     10.63039        -0.866024     -0.202073      0.011035
O       1.69949     15.00162     10.61018         0.825234      0.691261      0.041467
O      13.08815      3.76508     10.65278         0.235131     -0.342055     -0.260915
O      12.93643     14.97793     10.50286         0.400666      0.657773      0.333805
O       1.77461      7.50559      2.44188         0.307068      0.028151     -0.145050
O       1.87146      7.53954     14.53606        -0.231613     -0.056063      0.439579
O      13.00076      7.50469      2.51486         0.367872     -0.029642     -0.164459
O      13.06149      7.55083     14.78595         0.238690     -0.662549      0.090864
O       2.04414      7.45526      6.40537        -0.521677      0.683770     -0.244484
O      13.01890      7.50784      6.56333        -0.106433     -0.005769      0.370397
O       1.86671      7.50219     10.59220         0.083221     -0.251706      0.554621
O      13.00357      7.49063     10.62607         0.167342     -0.520648      0.153415
O       1.71107     11.26339      2.40364        -0.253548     -0.405110     -0.327310
O       1.86270     11.25314     14.64062        -0.047892      0.238968      0.275082
O      13.23774     11.27488      2.45475        -0.432612      0.458015     -0.102605
O      13.02637     11.23824     14.82119         0.141908      0.356556     -0.460583
O       1.74762     11.22933      6.50909         0.207337     -0.177887      0.080990
O      13.18695     11.23018      6.55729        -0.098566      0.233969     -0.116526
O       1.77769     11.25867     10.45169        -0.007978     -0.316484      0.363106
O      13.17976     11.22560     10.48680        -0.268933      0.091873      0.753948
O       5.73150      3.74460      2.17302        -0.357775      0.015168      0.185369
O       5.55502      3.78299     14.64767         0.077516     -0.078542      0.358249
O       5.36118     14.95983      2.41592         0.452751      0.628174     -0.105277
O       5.68895      0.04033     14.59718        -0.052005     -0.281813      0.072209
O       5.71146      3.72613      6.60186        -0.228471      0.232819     -0.294569
O       5.46431      0.00584      6.39140        -0.372481     -0.660538      0.395092
O       5.63272      3.74553     10.49606         0.109268      0.298585      0.452897
O       5.54502     14.93778     10.65457         0.116569      0.605602      0.351570
O       5.50799      7.49825      2.35801         0.355378      0.326856      0.390191
O       5.74253      7.61251     14.70587         0.167610     -0.594117      0.175119
O       5.51429      7.48449      6.44292         0.173369      0.241171     -0.114080
O       5.51490      7.50534     10.61726         0.417749     -0.684342      0.247586
O       5.55391     11.24485      2.56221         0.556189      0.035743     -0.386943
O       5.53720     11.26619     14.74370        -0.002066      0.514713      0.146048
O       5.73530     11.22700      6.59361        -0.397268      0.026483      0.014465
O       5.64111     11.19971     10.57864        -0.280640      0.260334     -0.112930
O       9.29305      3.79860      2.61143        -0.141896     -0.710926     -0.811699
O       9.44085      3.76837     14.62929         0.099363      0.535187      0.488972
O       9.48522      0.02353      2.48713        -0.264636     -0.047927      0.196749
O       9.22751      0.06430     14.77133         0.031806     -0.553832     -0.073099
O       9.17204      3.77215      6.47004         0.318944     -0.188387     -0.024878
O       9.52419      0.04022      6.50956        -0.053905     -0.338062      0.049297
O       9.23127      3.78655     10.50586         0.154233     -1.059423      0.354224
O       9.38474     14.97468     10.54729        -0.344649      0.575053      0.315014
O       9.42981      7.55124      2.38399        -0.280727     -0.012457     -0.031698
O       9.25522      7.54314     14.66933        -0.003020     -0.585859      0.191214
O       9.34645      7.53443      6.54389        -0.032312      0.098678      0.212791
O       9.46406      7.47216     10.63590        -0.173848     -0.366699      0.223942
O       9.26239     11.31231      2.53840         0.180307      0.395552     -0.277367
O       9.40852     11.29674     14.77756         0.276581      0.487082     -0.107169
O       9.25458     11.30982      6.45542         0.146692      0.051886      0.180470
O       9.17959     11.22190     10.56072         0.634569      0.498439      0.565967
