  # total energy = -7867.80133557 
CRSYTAL
PRIMVEC
    15.010000000000000    0.0000000000000000    0.0000000000000000
     0.0000000000000000   15.010000000000000    0.0000000000000000
     0.0000000000000000    0.0000000000000000    16.400000000000000
PRESSURE
18.5732 18.7749 8.58495 -0.009712 0.06246 0.015588
PRIMCOORD
320 1
Pb       3.67895      3.84249      4.04385         0.540921     -0.553646      0.754689
Pb       3.81605      3.67457      0.08128         0.257134      0.294821     -0.093835
Pb       3.68791      0.00290      4.05788         0.102998      0.149293      0.359232
Pb       3.60651     14.97365      0.03144         1.034353     -0.096879     -0.634575
Pb       0.02911      3.66353      4.03489        -0.505365      0.357897      0.494208
Pb       0.09628      3.77743      0.04657        -0.886614     -0.072158     -0.202066
Pb       0.08555     14.97606      3.96547        -0.376830     -0.517243      0.745692
Pb      14.93619     14.98877      0.02683        -0.318459     -0.080802     -0.206526
Pb       3.91883      3.73061      8.22738        -0.769260      0.322569     -0.054733
Pb       3.75358     14.91214      8.23670        -0.151009      0.552614     -0.018080
Pb       0.07892      3.70942      8.20821        -0.711591     -0.144622     -0.196292
Pb       0.07679      0.03757      8.27214        -0.416709      0.065472     -0.748336
Pb       3.66630      3.79880     12.32038         0.317312     -0.063770     -0.020007
Pb       3.80859      0.02659     12.26874        -0.803256     -0.339097      0.549399
Pb      14.97426      3.63119     12.31025         0.581273      0.561176      0.151293
Pb      14.94319     14.98828     12.35392         0.498622      0.083715     -0.149397
Pb       3.65668      7.46768      4.00336         0.388959      0.271208      0.937477
Pb       3.69607      7.39998      0.01390         0.246656      0.183632     -0.129687
Pb      14.90853      7.42127      4.08118         0.075354      0.470262      0.423131
Pb       0.02984      7.49773      0.00500        -0.312168     -0.274613     -0.293668
Pb       3.69421      7.44275      8.19120         0.110082      0.213019     -0.169278
Pb      14.93412      7.43434      8.20249         0.143100      0.466454      0.196124
Pb       3.79897      7.57877     12.29837        -0.386554     -0.159775      0.208269
Pb       0.11269      7.48338     12.37932        -0.193444     -0.196090     -0.147904
Pb       3.68729     11.35744      4.01644        -0.075801     -0.788638      0.770935
Pb       3.72767     11.26170      0.02392         0.177736      0.090555     -0.687884
Pb      14.93893     11.32351      4.08904         0.550579     -0.444553      0.250163
Pb      14.95991     11.16186     16.36980         0.108440      0.541924      0.298235
Pb       3.76788     11.20583      8.21711        -0.358211     -0.359071     -0.270632
Pb      14.90564     11.23277      8.33615         0.292655     -0.420573     -0.628014
Pb       3.76070     11.31432     12.31735         0.044956     -0.771141      0.690704
Pb      15.00495     11.21981     12.30541        -0.204170     -0.196246     -0.324315
Pb       7.50679      3.59682      4.10468        -0.153378      0.863521      0.570394
Pb       7.47119      3.78670     16.34994        -0.381674     -0.130557      0.401531
Pb       7.43821     15.00600      4.00541        -0.032651     -0.189820      1.223768
Pb       7.46990      0.03850      0.06832        -0.225017     -0.091715     -0.611008
Pb       7.54326      3.78956      8.28517        -0.246720     -0.008050     -0.548864
Pb       7.55691     14.84649      8.27398        -0.805335      0.861144     -0.368550
Pb       7.56241      3.65499     12.23754        -0.538164      0.164273      0.312784
Pb       7.50323     14.98500     12.34724         0.426023     -0.042999      0.209872
Pb       7.44658      7.51979      4.04759        -0.022045      0.183252      0.266057
Pb       7.45920      7.54527      0.08988         0.324621     -0.353762      0.359741
Pb       7.44654      7.60216      8.25789         0.254286     -0.823476     -0.725603
Pb       7.49167      7.33996     12.28891        -0.017236      0.700249      0.323307
Pb       7.47145     11.34153      4.05118        -0.545268     -0.881266      1.247012
Pb       7.53231     11.22628      0.07614        -0.041890      0.092556     -0.388522
Pb       7.46724     11.22823      8.32435        -0.139398     -0.222268     -1.222037
Pb       7.50331     11.16019     12.42006        -0.303961     -0.112432      0.147775
Pb      11.31228      3.70573      4.04899        -0.309517      0.383252      0.174674
Pb      11.13721      3.68210     16.36748         0.716022      0.230762      0.685259
Pb      11.22519      0.03838      4.08794         0.360078     -0.009598      0.008463
Pb      11.08787     14.90378      0.04677         0.620997      0.722039      0.411585
Pb      11.18777      3.76236      8.13890         0.374809      0.125073      0.425446
Pb      11.25777     14.99002      8.23056         0.472120      0.314287     -0.243264
Pb      11.31855      3.71908     12.36422        -0.354530      0.378042     -0.195567
Pb      11.23978     15.00487     12.24738        -0.566922     -0.192542      0.183484
Pb      11.08199      7.42697      4.09102         0.654901      0.104579      0.065431
Pb      11.21576      7.52503     16.35800        -0.092862     -0.051461      0.677116
Pb      11.16952      7.51538      8.26137        -0.057657     -0.366040     -0.224555
Pb      11.30557      7.52789     12.33663         0.286387     -0.236956      0.514425
Pb      11.26349     11.28794      4.15030        -0.002623     -0.745158      0.515457
Pb      11.23820     11.27660      0.08957        -0.206262     -0.266443     -0.649526
Pb      11.16408     11.15211      8.20144         0.492432      0.019585      0.022098
Pb      11.26069     11.28463     12.32640         0.403512     -0.223656     -0.213921
Ti       1.87443      1.88599      1.99742         0.667075     -0.139395      1.347528
Ti       1.86760      1.91382     14.48055         0.098692     -0.397265     -1.206848
Ti       1.88720     13.08047      2.04101        -1.121946     -0.184458      0.701804
Ti       1.82613     13.12473     14.43557         1.236318      0.183441     -0.446876
Ti      13.11610      1.84908      2.11686        -0.073226     -0.435410     -0.473271
Ti      13.10597      1.92824     14.46261         0.177736     -1.034061      1.038687
Ti      13.00989     13.03776      2.06982         1.299140      2.268681     -0.097393
Ti      13.12266     13.14501     14.46428        -0.456197     -0.089904      0.202996
Ti       1.88048      1.89983      6.16296         0.197429     -0.954138      0.720574
Ti       1.80378     13.08568      6.23829        -0.461933      1.087843     -0.451354
Ti      13.09366      1.86819      6.19321         0.249143      0.236122      0.331492
Ti      13.04388     13.09756      6.25651         0.821198      0.439157     -0.626740
Ti       1.91869      1.85836     10.28189        -1.109872     -0.829812      0.155972
Ti       1.88511     13.07523     10.30415        -0.092727      0.465002     -0.409527
Ti      13.09293      1.86549     10.36580         0.156500      1.000470     -2.395440
Ti      13.16309     13.13279     10.27769        -0.419445     -0.631564      0.006750
Ti       1.84366      5.60669      2.12422         0.550823      0.105461     -0.656814
Ti       1.90786      5.60567     14.51287        -0.906956     -0.245692     -1.789159
Ti      13.15053      5.60327      2.03106        -1.018802     -0.315735      0.811804
Ti      13.11899      5.62270     14.55802         0.131667      0.597626     -1.401191
Ti       1.80238      5.62475      6.26367         1.262904      0.524709     -0.404583
Ti      13.01961      5.63994      6.21979         0.997599     -0.543402      0.381140
Ti       1.87721      5.55106     10.33657         0.469562      0.854720      0.271949
Ti      13.14393      5.61673     10.36708        -0.109075     -0.313613     -0.515278
Ti       1.81353      9.33629      2.06074        -0.297938      0.546992      0.680921
Ti       1.85657      9.40247     14.42585         1.058042     -1.177496     -0.747630
Ti      13.11877      9.36114      2.13100        -0.315321     -0.761164      0.183744
Ti      13.13181      9.39185     14.51251        -0.693647     -0.725858     -1.637917
Ti       1.84159      9.40120      6.23561        -0.116636     -0.459996      0.035393
Ti      13.10830      9.33104      6.21823         0.082181      0.435878     -1.012220
Ti       1.89010      9.32588     10.31009         0.036085     -0.116421     -0.154133
Ti      13.11306      9.30520     10.39482         0.330327      0.981028     -0.290266
Ti       5.64250      1.88312      2.17663        -1.489065      0.273255     -1.146121
Ti       5.60964      1.87303     14.42622         0.454697     -0.619997      0.337821
Ti       5.61931     13.14793      2.04543        -0.613944      0.215274     -0.796748
Ti       5.65297     13.08012     14.43046        -0.721613      0.412860      0.619037
Ti       5.55945      1.82649      6.26414         0.674267      0.452844     -0.228107
Ti       5.53640     13.13980      6.24922         0.492055     -0.425023      0.007254
Ti       5.56118      1.78728     10.33863         0.905265      1.699700     -1.186580
Ti       5.67401     13.06847     10.36598        -1.493532     -0.237474     -0.645222
Ti       5.62017      5.65857      2.17938         0.676634     -0.575785      0.373009
Ti       5.60775      5.60631     14.39836         0.183711     -0.395794      0.412682
Ti       5.59550      5.62757      6.18440         0.075678      0.645808     -0.387240
Ti       5.64042      5.61005     10.30735        -0.368916     -0.370752     -0.206998
Ti       5.54108      9.44640      2.09656         0.896632     -0.566664      0.938955
Ti       5.64626      9.28302     14.55627        -1.046327      0.900099     -1.857989
Ti       5.63971      9.38375      6.13838        -0.891315     -0.642204     -0.714235
Ti       5.66939      9.37264     10.38088        -0.792820     -0.407771      0.486457
Ti       9.32867      1.88569      2.12101         1.455749     -0.099061     -0.477537
Ti       9.35195      1.89046     14.47726        -0.051106     -1.135537     -0.874882
Ti       9.30795     13.09043      2.20851         0.704788      1.167991     -1.130936
Ti       9.36546     13.12059     14.49036         0.552904      0.462719     -0.270282
Ti       9.30239      1.82317      6.26707        -0.276816      1.294389      0.173856
Ti       9.28671     13.14300      6.21593         0.150762     -0.827734     -0.307616
Ti       9.29613      1.83331     10.28100         0.683705     -0.003925      0.251026
Ti       9.37178     13.02011     10.25778         0.836446      1.329031      0.872064
Ti       9.33771      5.62287      2.09071         0.692662      0.364130      0.917458
Ti       9.35688      5.66987     14.46499         0.000750     -0.108655     -0.346430
Ti       9.26086      5.59287      6.15566         1.140474      0.704840      0.254881
Ti       9.45811      5.60406     10.43944         0.467620      0.226969     -1.417010
Ti       9.31201      9.42223      2.11219        -0.020832     -1.666390     -0.448832
Ti       9.36113      9.36867     14.39269         0.156298      0.331296      0.245256
Ti       9.37602      9.40177      6.20623        -0.644620     -1.023470     -0.112313
Ti       9.38038      9.35966     10.38583         0.581271     -1.363892     -0.721432
O       1.76829      1.88933      0.23224         0.145583     -0.278632     -0.309594
O       1.93836      1.94285     12.63326        -0.357263     -0.375410      0.672333
O       1.90632     13.09932      0.26258        -0.093352     -0.191276      0.007222
O       1.91878     13.14438     12.60083        -0.506708     -0.194564      0.527688
O      13.24967      1.85974      0.31641        -0.059883     -0.039938     -0.619576
O      13.20632      1.93041     12.65268        -0.622329     -0.409465     -0.782047
O      13.02786     13.10451      0.23761         0.329334     -0.309696      0.767391
O      13.14953     13.21297     12.66876        -0.127548     -0.491475     -1.315627
O       2.03162      1.86650      4.36270        -0.525421      0.083425      0.180646
O       1.97213     13.11340      4.34693        -0.515944     -0.094971      0.228975
O      13.05387      1.84243      4.33031         0.398106     -0.203354      0.725095
O      13.05668     13.16695      4.36584        -0.058646     -0.180503      0.847497
O       1.89471      1.88749      8.48947        -0.096871     -0.249126     -0.396200
O       1.78974     13.11160      8.43996         0.246479      0.225534      0.899454
O      13.07212      1.93150      8.46973         0.143854     -0.327636      1.667259
O      13.16282     13.12031      8.47835        -0.097895     -0.090116     -0.402073
O       1.91040      5.55974      0.27345        -0.074290      0.423178      1.097360
O       1.92503      5.54990     12.62937        -0.243465      0.147218      0.339044
O      13.19071      5.50524      0.27407        -0.187624      0.498367     -0.564816
O      12.98572      5.62538     12.68924         0.601231      0.007004      0.392950
O       1.91457      5.58321      4.42166        -0.491841      0.351541     -0.023893
O      13.15040      5.58230      4.42200         0.060457      0.164979     -0.377363
O       1.94045      5.62436      8.55055        -0.435459     -0.168677     -0.626971
O      13.01864      5.70292      8.56991         0.354912     -0.415725     -0.277819
O       1.77393      9.34238      0.24212         0.053059     -0.036026      0.507392
O       1.89602      9.29782     12.57007        -0.419039      0.223965      0.801182
O      13.21216      9.40258      0.28133        -0.180184      0.038952      0.614023
O      13.06994      9.33173     12.61623         0.184703      0.224681      0.487810
O       1.74552      9.47799      4.44616         0.600514     -0.464905     -0.038903
O      13.10484      9.29878      4.36870        -0.272569      0.358530     -0.007122
O       1.90272      9.37969      8.51589        -0.274025      0.141568     -0.052543
O      13.09429      9.44239      8.60019         0.146604     -0.089293     -0.587411
O       5.72552      1.90658      0.33839        -0.298470     -0.156926      0.476512
O       5.72883      1.87576     12.62253        -0.366789     -0.289675     -0.265045
O       5.61204     13.12111      0.22937         0.054816     -0.184711      0.607777
O       5.57348     13.10164     12.61432         0.441625      0.353316     -0.095072
O       5.44074      1.76142      4.41307         0.804420      0.150973      0.219170
O       5.42965     13.09926      4.43502         0.677749      0.550050      0.101652
O       5.56887      1.93530      8.47788         0.116468     -0.280630      1.646092
O       5.63282     12.99547      8.49631        -0.134967      0.172861      1.315666
O       5.47756      5.46720      0.43328         0.297106      0.268314     -1.524435
O       5.69901      5.61890     12.61830        -0.155659      0.121058     -0.138423
O       5.65421      5.64675      4.33361        -0.124418      0.125187      0.442930
O       5.62799      5.64975      8.49314        -0.001143     -0.220969      0.422806
O       5.71768      9.46895      0.29592        -0.598946      0.053570     -0.181593
O       5.68699      9.28951     12.66871         0.001770     -0.194619      0.728835
O       5.73362      9.40123      4.28130        -0.784470     -0.122914      1.131660
O       5.71002      9.31950      8.57907        -0.108299      0.666120      0.144636
O       9.36322      1.78477      0.30835        -0.369393      0.711855      0.583717
O       9.37566      1.89528     12.63598        -0.162639     -0.527940      0.528820
O       9.47127     13.13435      0.35759        -0.512710     -0.468028      0.780303
O       9.48505     13.13620     12.70114        -0.141350     -0.173024     -1.186830
O       9.38469      1.88697      4.46543        -0.442516     -0.113157     -0.780762
O       9.24516     13.13839      4.37645         0.438167     -0.042910     -0.177034
O       9.27709      1.89676      8.47707         0.249210     -0.401421      0.142675
O       9.36448     13.09581      8.46239        -0.383650      0.052250      0.351655
O       9.33874      5.77718      0.34343         0.105066     -0.725139     -1.106357
O       9.44034      5.70730     12.64424        -0.139750     -0.523941      0.175964
O       9.45204      5.50643      4.35927        -0.463744      0.486260     -0.218093
O       9.53046      5.71301      8.59878        -0.506840     -0.450351      0.176505
O       9.19399      9.34911      0.26225         0.689659      0.394652      0.974250
O       9.40988      9.37282     12.55734         0.066000      0.240291      1.042626
O       9.35609      9.51585      4.40323         0.122135     -0.530673     -0.174021
O       9.24241      9.30773      8.51145         0.377437      0.337412      0.495008
O       3.73890      2.02251      2.27082        -0.068279     -0.408065     -0.053584
O       3.76048      1.85711     14.72661        -0.416177     -0.235216      0.216766
O       3.76325     12.90470      2.25994        -0.592737      0.743670     -0.030786
O       3.75247     13.04425     14.81889        -0.373755      0.532453     -0.384451
O       0.07927      1.83930      2.53806        -1.116037     -0.417342     -0.624472
O      14.99287      1.98291     14.64567         0.049154     -0.112343      0.140509
O      14.98568     13.15986      2.29637        -0.220613      0.223719      0.201726
O       0.01971     13.03016     14.78512        -0.403435     -0.136071     -0.131922
O       3.76225      1.67933      6.58347        -1.353504      0.352491     -0.061592
O       3.67554     13.29376      6.56803         0.440217     -0.845630     -0.213361
O      14.99683      1.91296      6.52809         0.111682      0.475526     -0.430275
O      14.93684     13.12832      6.41227        -0.517885     -0.221694      0.048169
O       3.72411      1.90505     10.64897         1.607645      0.021871      0.246535
O       3.76046     12.89828     10.69156         0.130624      0.643057     -0.963492
O       0.05150      1.80580     10.55161        -0.791758     -0.314498      0.390057
O       0.00799     13.27423     10.56436         0.246372     -0.293844      0.386729
O       3.74227      5.59721      2.43206        -0.525226      0.048551      0.048651
O       3.73468      5.66874     14.71575         1.066388     -0.056841      0.072829
O       0.00290      5.65551      2.34358         0.202152     -0.047873      0.373859
O      14.99681      5.58028     14.74884        -0.327756     -0.251519     -0.130688
O       3.73260      5.69742      6.50246        -0.125567      0.281444     -0.033490
O      15.00402      5.67971      6.62164        -0.784621     -0.708457     -0.242828
O       3.77462      5.45122     10.56677         0.385362      0.288227      0.313772
O       0.03863      5.77793     10.58599        -0.450514     -0.370309      0.285885
O       3.68515      9.45196      2.42647         0.485774     -0.183634     -0.389108
O       3.68814      9.15158     14.73494         0.611148      0.509848      0.182834
O      15.00986      9.29142      2.51390        -0.763930      0.174735     -0.700920
O      14.98216      9.33393     14.62866         0.513489      0.153990      0.221734
O       3.73131      9.31389      6.64323         0.365397      0.666336     -0.741043
O      14.91447      9.40265      6.49313         1.052593      0.181647      0.508336
O       3.79654      9.48322     10.72443         0.129157      0.241613     -0.577188
O       0.00223      9.25597     10.60435        -0.069561     -0.065287      0.362885
O       7.48719      1.73573      2.47661         0.460216      0.115968      0.051871
O       7.52255      1.83938     14.82671        -0.723733      0.516565     -0.480874
O       7.46256     13.31744      2.35626         0.343675     -0.274485      0.195309
O       7.52387     13.12346     14.77541        -1.139186     -0.523336     -0.256826
O       7.39542      2.00605      6.62614         0.870570     -0.512769     -0.695388
O       7.46446     13.12843      6.58818        -0.599775     -0.359465     -0.194293
O       7.47423      1.66210     10.66120        -0.533394      0.590319     -0.134187
O       7.48565     13.12938     10.61822         1.069184      0.004861      0.032794
O       7.49660      5.79114      2.29822         0.061449     -0.387489      0.357683
O       7.49145      5.62588     14.78710        -0.353512     -0.341272     -0.193168
O       7.48009      5.65450      6.56115        -0.650321     -0.118053     -0.016256
O       7.58687      5.72079     10.58660        -1.095975      0.047553      0.142171
O       7.47408      9.25529      2.41581        -0.437013      0.322656     -0.316158
O       7.47408      9.40192     14.75685         0.944835      0.163237     -0.451552
O       7.44015      9.29615      6.47703         1.111213      0.444368      0.285856
O       7.57123      9.28265     10.75270        -1.156533     -0.164358     -0.379255
O      11.23880      1.94154      2.36781        -0.334696      0.523392      0.044018
O      11.19756      1.74565     14.83606         1.541213      0.262291     -0.585305
O      11.18202     12.87793      2.46935        -0.235951      0.402416     -0.393006
O      11.27351     13.25542     14.78546         0.023325     -0.662815     -0.512369
O      11.18571      1.88722      6.44813        -0.141416     -0.201142      0.275300
O      11.14632     13.21830      6.52272         0.751104     -0.250085     -0.079677
O      11.16767      1.99657     10.56550         1.310792     -0.612744      0.306983
O      11.28162     13.04682     10.41264        -0.775253      0.414162      0.864926
O      11.32027      5.52027      2.28495        -1.208417     -0.121021      0.441641
O      11.15622      5.56709     14.84724         1.344900      0.666885      0.014298
O      11.25417      5.56615      6.42882        -1.374715      0.341955      0.223028
O      11.31398      5.33578     10.62157        -0.354893      0.222388      0.467278
O      11.18939      9.42869      2.30773         0.865640      0.629888      0.086847
O      11.20646      9.30907     14.74964         0.274934      0.295042      0.022169
O      11.22681      9.39837      6.54213        -0.800815     -0.224476      0.060368
O      11.23271      9.52602     10.52645         0.766006     -0.195925      0.447318
O       1.82908      3.76026      2.46333        -0.171936     -0.219219     -0.476350
O       1.91706      3.75668     14.85021         0.101041     -0.707731     -0.485098
O       1.91471      0.00996      2.26363         0.400533     -0.676370      0.139008
O       1.84328     14.97937     14.78408        -0.141197      0.498185     -0.266845
O      13.25196      3.67164      2.33729         0.088597      1.278292      0.524881
O      13.04599      3.78941     14.73120        -0.254358     -1.716028     -0.011965
O      12.87216     14.97118      2.24004         0.774276     -0.592729      0.658060
O      13.32105     14.95514     14.58708        -0.083889      1.969581      0.604569
O       2.01497      3.77445      6.49707        -0.558081     -0.756006      0.042436
O       1.70803      0.00600      6.37046         0.273831      0.060010      0.392667
O      13.03809      3.74639      6.58121         0.735046      0.078159     -0.467827
O      13.06569      0.03673      6.59615         0.043720     -0.701259     -0.282462
O       1.91684      3.68024     10.60632        -0.737931      0.892325      0.128092
O       2.05032     14.94727     10.60106        -0.104015      0.302199     -0.083199
O      13.28805      3.71812     10.64676         0.083386      0.145904      0.127328
O      13.10350      0.02079     10.51222        -0.440516     -0.287842      0.706758
O       1.87553      7.46430      2.42885         0.201003      0.523311     -0.141958
O       1.78229      7.41102     14.73488        -0.198118      1.595943      0.147842
O      13.05997      7.47695      2.34890         0.199102      0.377189      0.013062
O      13.16272      7.51391     14.80229        -0.383382     -0.707293      0.145356
O       1.79927      7.54944      6.52887         0.059673     -0.892047     -0.034530
O      13.08925      7.54692      6.58407        -0.049484     -1.695467     -0.051356
O       2.07855      7.49831     10.54709        -0.162808     -0.874184      0.453901
O      12.99982      7.46608     10.59040        -0.302320      0.223094      0.430090
O       1.81127     11.19593      2.39982        -0.356313      0.652062     -0.409115
O       1.86322     11.19913     14.72472         0.175448      0.575455     -0.073645
O      13.17912     11.25918      2.36130         0.127192     -1.360671      0.296115
O      13.09165     11.20125     14.69331        -0.112911      1.248130      0.161123
O       1.78040     11.27453      6.55093         0.614277     -0.180836      0.029505
O      12.98912     11.19193      6.48715         0.077941      1.980493      0.057645
O       1.74950     11.20730     10.51716        -0.202381      0.747857      0.548057
O      13.20380     11.27511     10.66108         0.475508      0.056943      0.196102
O       5.76241      3.71710      2.44552        -0.035358      0.380965      0.153642
O       5.53030      3.73576     14.79262         0.636409      0.533900     -0.298979
O       5.54542     14.98540      2.40108        -0.456321      0.227872      0.041192
O       5.63046      0.01477     14.68597        -0.050267     -0.778689      0.049302
O       5.51649      3.80325      6.48934         0.034445     -1.340537     -0.162263
O       5.67333     14.97601      6.68967         0.213857     -0.068881     -0.417590
O       5.71782      3.72217     10.64990         0.361902     -0.293191     -0.295985
O       5.52532     14.95594     10.52015        -0.122565     -0.570853      0.326832
O       5.60684      7.54539      2.27141        -0.786790      0.231657      0.239776
O       5.63524      7.43041     14.88603         0.051472     -0.050122     -0.136235
O       5.63473      7.50501      6.46527        -0.165734      0.273021      0.049255
O       5.48968      7.46965     10.63695         0.743506      0.392896     -0.108593
O       5.75302     11.34082      2.42160         0.063245     -1.360403     -0.370724
O       5.52050     11.17513     14.58694         0.278544      0.556659      0.479284
O       5.60853     11.23535      6.50915        -0.280270      0.377705      0.136186
O       5.76460     11.23372     10.78749         0.124437     -0.545546     -0.534412
O       9.23878      3.77105      2.46253         0.018886     -0.837475     -0.637425
O       9.41697      3.73483     14.74919        -0.469969      0.395536     -0.038118
O       9.51057      0.02824      2.34262        -0.297523     -1.068880      0.539896
O       9.29783     14.95807     14.80621         0.025600      1.079474     -0.273767
O       9.25020      3.79754      6.52993         0.527261     -1.365062      0.334232
O       9.22899     14.99298      6.44681         0.054507      0.466687      0.501051
O       9.27821      3.69936     10.65362        -0.444367      0.027442     -0.187104
O       9.36736     14.94884     10.67785         0.577709     -0.309634     -0.348894
O       9.43522      7.51897      2.45677         0.082623     -0.136489      0.052514
O       9.34776      7.52915     14.80661        -0.167606     -0.096685     -0.645720
O       9.38810      7.44541      6.43425         0.199817      1.213104     -0.001730
O       9.66619      7.46849     10.67521        -0.550976      0.515153     -0.325716
O       9.10382     11.23287      2.42252         0.527561      0.991226     -0.577896
O       9.44129     11.28905     14.80832        -0.106068     -1.492890     -0.286762
O       9.30769     11.24435      6.49845         0.060977      0.351100      0.273715
O       9.43093     11.19709     10.60091        -0.954350      1.409918      0.170776
