  # total energy = -7865.68890915 
CRSYTAL
PRIMVEC
    15.010000000000000    0.0000000000000000    0.0000000000000000
     0.0000000000000000   15.010000000000000    0.0000000000000000
     0.0000000000000000    0.0000000000000000    16.400000000000000
PRESSURE
18.9712 19.3489 13.1644 0.036668 -0.085549 0.018439
PRIMCOORD
320 1
Pb       3.58717      3.70737      3.96951         1.215418     -0.404900      1.577677
Pb       3.70498      3.69268     16.34773        -0.175510      0.072501      0.618147
Pb       3.81412     14.87496      4.10081        -0.292500      1.030960      0.171821
Pb       3.73288     14.97704      0.03189         0.162394      0.185014      0.677101
Pb       0.00625      3.76746      4.15808         0.034192     -0.042953     -0.120128
Pb      14.97082      3.78780      0.08024         0.126789     -0.335448     -0.753280
Pb      14.99195     14.97374      4.10059        -0.112927      0.000800      0.278533
Pb       0.03142      0.02073     16.36720        -0.159586      0.164150      0.952365
Pb       3.76711      3.73214      8.13338        -0.373414      0.099084      0.729644
Pb       3.73536      0.06501      8.20024         0.102553     -0.636491      0.345824
Pb      14.93563      3.67035      8.08031         0.189788      0.688906      1.381151
Pb       0.02588      0.08440      8.20643         0.084923     -0.797535      0.191247
Pb       3.73719      3.67409     12.42749         0.012681     -0.015075     -0.666207
Pb       3.73216     14.97712     12.24342         0.379900      0.152582      0.646760
Pb      14.91409      3.76322     12.29832         0.599197      0.334905      0.071318
Pb      14.92985     15.00963     12.31388         0.848830     -0.240954      0.240902
Pb       3.87147      7.49236      4.15337        -0.660066     -0.014171      0.172163
Pb       3.72931      7.57036     16.26506        -0.183981     -0.499980      1.084602
Pb       0.00733      7.51504      4.10604        -0.174873      0.187633      0.155105
Pb       0.04979      7.46883     16.38235        -0.286503     -0.093143      0.511848
Pb       3.74877      7.43607      8.32984        -0.294592      0.737521     -0.273806
Pb      14.98851      7.48049      8.11258        -0.444141      0.116857      1.101563
Pb       3.73116      7.36547     12.38578        -0.104193      0.233019     -0.223699
Pb      14.96701      7.58094     12.31979        -0.178267     -0.555158     -0.473106
Pb       3.81815     11.20154      4.01422         0.183866      0.167487      0.587462
Pb       3.74672     11.35386      0.09230        -0.150498     -0.085606      0.080629
Pb      14.97736     11.27565      4.12345        -0.214368     -0.275765     -0.092309
Pb       0.00214     11.12929      0.00121         0.042719      0.788685      0.914098
Pb       3.71779     11.30282      8.19261         0.067737     -0.132089      0.212016
Pb      14.96134     11.29094      8.15123         0.167768     -0.407183      0.328552
Pb       3.72170     11.14494     12.33876        -0.174862      0.598758      0.087514
Pb      14.95835     11.18657     12.29934         0.071397      0.653305      0.103868
Pb       7.43380      3.74423      4.13476         0.056991     -0.020774      0.705474
Pb       7.44199      3.67307      0.03971         0.455162     -0.065608      0.471066
Pb       7.49085     15.00577      4.05678         0.282554     -0.013298      1.006041
Pb       7.63903     14.98206      0.02890        -0.516380      0.389855      0.317995
Pb       7.45687      3.80496      8.21905         0.405803     -0.340043      0.256976
Pb       7.42087     14.87705      8.20922         0.577220      0.426893      0.827890
Pb       7.51487      3.69619     12.37065        -0.431719      0.218945     -0.600617
Pb       7.43120      0.09273     12.25390         0.360279     -0.610623      0.463305
Pb       7.58107      7.46131      4.19783        -0.248005      0.120022      0.125189
Pb       7.44288      7.45381     16.38454         0.631642      0.189405      0.275067
Pb       7.49190      7.47370      8.08525         0.460163      0.302396      1.142864
Pb       7.42788      7.49270     12.23679         0.367208      0.119073      0.362014
Pb       7.42319     11.16576      4.10782        -0.031844      0.220633      0.472862
Pb       7.45843     11.22129     16.36969         0.244178     -0.131707      0.200703
Pb       7.47067     11.23803      8.23219         0.122900     -0.094180     -0.216975
Pb       7.45662     11.25423     12.35623         0.272732      0.095623     -0.123353
Pb      11.37683      3.71579      4.12812        -0.911142      0.271415      0.121010
Pb      11.21977      3.70942      0.02893        -0.170557      0.217265      0.472618
Pb      11.16623     14.97470      4.07545         0.611281     -0.172409     -0.028181
Pb      11.35560      0.01297     16.33444        -0.304650      0.290220      1.206669
Pb      11.19273      3.67797      8.25631        -0.023037     -0.058309      0.084968
Pb      11.22595     14.99479      8.13585        -0.236247     -0.243490      1.153536
Pb      11.22651      3.74030     12.35700         0.130612     -0.154563     -0.395282
Pb      11.21508     14.83947     12.27346        -0.453971      0.966385      0.775750
Pb      11.22355      7.50164      4.06482         0.792592     -0.327938     -0.005287
Pb      11.29301      7.46579     16.31926        -0.804039      0.284941      1.227334
Pb      11.35103      7.51459      8.18197        -0.318020      0.162663      0.278271
Pb      11.14126      7.57363     12.36266         0.362744      0.180347     -1.086876
Pb      11.14439     11.25769      4.08205         0.913790     -0.088685      0.329771
Pb      11.19619     11.38332     16.36574         0.163274     -1.018029      0.637157
Pb      11.29853     11.29571      8.09229        -0.716106     -0.385298      0.687218
Pb      11.24830     11.18529     12.34324        -0.000452      0.004901     -0.235316
Ti       1.80702      1.83049      2.16999         0.814350      0.218279     -0.512366
Ti       1.83735      1.85159     14.44446        -0.200300      0.471800      0.565463
Ti       1.90212     13.13984      2.22975        -0.763957     -0.556368     -0.052652
Ti       1.87807     13.11460     14.44007        -0.102814      0.476057      1.109503
Ti      13.12542      1.88939      2.13167        -0.275276     -1.296595      0.857747
Ti      13.12716      1.87201     14.34105         0.257368      1.451781     -0.011946
Ti      13.09559     13.12552      2.21231        -0.163745     -0.048026      0.007891
Ti      13.12350     13.15416     14.49530         0.494008     -0.608734      0.024073
Ti       1.88194      1.89714      6.23831         0.713480     -1.504658      0.131459
Ti       1.81594     13.10045      6.17693         0.628941      0.742880     -0.016695
Ti      13.13875      1.78262      6.25008        -0.635031      0.164747      0.043032
Ti      13.11120     13.10027      6.26828        -0.432701      0.005991     -1.064809
Ti       1.91641      1.78796     10.29490         0.892725      0.956807      0.069305
Ti       1.92361     13.09862     10.32090        -1.040138     -0.182052      1.528523
Ti      13.18522      1.81595     10.34680        -1.102888      1.509476      0.483238
Ti      13.16264     13.17027     10.38907         0.014529     -1.742347     -0.297496
Ti       1.87104      5.65429      2.13838         0.163522      0.086333      0.332599
Ti       1.84472      5.61041     14.43223        -0.924057     -1.049060      0.808932
Ti      13.20355      5.60063      2.12075        -1.335251      1.136787      0.184124
Ti      13.05449      5.68182     14.46893         0.921866     -1.504000      0.791052
Ti       1.80462      5.65025      6.26308         0.777419     -0.146700     -0.019422
Ti      13.07117      5.54458      6.19921         0.409696      0.567148     -0.071850
Ti       1.88076      5.53725     10.26248        -0.482297      0.427589     -0.114284
Ti      13.13812      5.67985     10.28008         0.054589     -0.124198     -0.306361
Ti       1.99003      9.38434      2.21246        -1.572504     -0.177153     -0.493616
Ti       1.84871      9.39327     14.46651         0.020529      0.046798      0.814462
Ti      13.21830      9.38382      2.09939        -0.503393      0.149414      0.409136
Ti      13.14727      9.42840     14.45674        -1.024033     -1.199593     -0.389920
Ti       1.84939      9.32947      6.22632         0.254605      0.799495      0.230883
Ti      13.12230      9.32102      6.16345         0.172671      0.140337      0.790885
Ti       1.83460      9.35291     10.35886         0.187503     -0.312953     -0.191082
Ti      13.10124      9.44177     10.23766        -0.880856     -0.199418      1.051368
Ti       5.64155      1.83954      2.13927        -1.520034      1.163439     -0.112458
Ti       5.56220      1.80105     14.46206         0.352249     -0.649128      0.756256
Ti       5.72881     13.17604      2.12181        -0.456027     -1.317608     -0.693763
Ti       5.60852     13.11538     14.43404         0.373662      1.221075     -0.085087
Ti       5.67575      1.86115      6.24033        -0.060753      0.433566      0.787588
Ti       5.59701     13.14724      6.19688        -0.367503     -1.043041     -0.210619
Ti       5.66013      1.95692     10.23225        -0.243779     -0.510086      2.453550
Ti       5.64059     13.15312     10.40737         0.501410      0.361742      0.524957
Ti       5.58785      5.63226      2.24235        -0.336250     -1.192777     -1.032749
Ti       5.62028      5.53313     14.51023        -1.015370      1.021789     -0.578800
Ti       5.55688      5.65116      6.31805         0.849606     -0.591447     -0.287940
Ti       5.60752      5.69489     10.35364         1.275187     -1.895413     -0.074958
Ti       5.72319      9.30209      2.02670        -0.444468      1.211634      1.277327
Ti       5.55651      9.40372     14.42133         0.641424     -1.066961      0.261715
Ti       5.58966      9.38286      6.25376        -0.531502      0.796028      0.320260
Ti       5.53965      9.42067     10.38953         0.448039     -0.612737     -0.383091
Ti       9.35241      1.84547      2.27269         0.601870      0.375271     -1.730939
Ti       9.33936      1.84283     14.51506        -0.116711     -0.096443     -0.548587
Ti       9.29986     13.02859      2.12585         1.892871      1.105023      0.504369
Ti       9.33238     13.11277     14.45123         0.466322      0.438299      0.317871
Ti       9.39768      1.77069      6.22088        -0.743058      1.328900      0.214771
Ti       9.28324     13.11646      6.21963         0.370938     -2.304685      0.859656
Ti       9.37909      1.86145     10.45684         0.812003     -0.572207     -1.187419
Ti       9.38189     13.07720     10.38090        -0.621424      1.059960      0.808332
Ti       9.32162      5.57618      2.27231         1.299321      0.231235     -1.059392
Ti       9.28165      5.58095     14.37589         0.741868      0.455227      1.063171
Ti       9.41724      5.59158      6.27937        -0.544622     -0.884045     -1.273022
Ti       9.41989      5.62324     10.33326        -1.259345      0.623521      1.557497
Ti       9.41603      9.33401      2.21088         0.177475      0.267112     -1.083693
Ti       9.35873      9.33670     14.44117        -0.441106      0.636870      0.486941
Ti       9.39783      9.32069      6.16066        -0.027944      1.239793      0.763609
Ti       9.31305      9.42530     10.25102         0.534635     -1.224129      0.900985
O       1.65351      1.82878      0.38455         0.737244      0.255048      0.261789
O       1.81064      1.92455     12.69071         0.284412     -0.270051     -1.333739
O       2.02779     13.11469      0.46205        -0.402295      0.009301     -0.823241
O       1.82688     13.13332     12.70100         0.060562      0.093138     -0.411971
O      13.11335      1.87593      0.38654         0.103065      0.059640     -1.262443
O      13.25409      1.99834     12.49314        -0.215809     -0.449414      1.360490
O      12.91761     13.11670      0.43014         0.388046      0.004260     -0.838478
O      13.20021     13.16517     12.72624         0.021631     -0.113395     -0.553930
O       1.82961      1.86005      4.50225         0.189446      0.104856     -1.616552
O       1.76246     13.07312      4.37120         0.813240      0.277238      0.778653
O      12.99799      1.82469      4.51546         0.560565     -0.133122     -1.215520
O      13.01843     13.14104      4.47720         0.484231      0.165782     -0.100050
O       1.98366      1.78584      8.45797        -0.428756     -0.073421      0.466950
O       1.81311     13.21155      8.59173        -0.117213     -0.176912     -1.591329
O      12.98900      1.78129      8.53474         0.423997      0.243379      0.068882
O      13.20635     13.14052      8.60033        -0.181128     -0.127459     -0.516425
O       1.80836      5.62029      0.35702         0.369166     -0.019222     -0.256944
O       1.98158      5.48357     12.70410        -0.611198      0.178947     -2.119731
O      13.26508      5.60454      0.29572        -0.619242      0.142796      0.763910
O      13.08782      5.56681     12.73003        -0.078476      0.333452     -1.910070
O       1.78592      5.72164      4.47450         0.205524     -0.430324      0.335695
O      13.23184      5.60192      4.41339        -0.320019     -0.212313     -0.066769
O       1.93105      5.71253      8.42813        -0.365629     -0.602051      1.278558
O      13.04098      5.69118      8.46963         0.287388     -0.493220      0.526794
O       1.83181      9.38758      0.39504         0.177652     -0.068249      0.178269
O       1.82257      9.43846     12.73169        -0.129502     -0.361134     -1.464572
O      13.11491      9.31739      0.30392         0.315117      0.390072     -0.061284
O      13.06381      9.43273     12.60874         0.283282     -0.546140      1.192785
O       1.80474      9.35120      4.44090         0.737414      0.067155     -0.115643
O      13.15117      9.42331      4.43588        -0.024361     -0.241330     -1.123270
O       2.02951      9.36981      8.58708        -0.633826     -0.004258      0.000969
O      13.03860      9.44565      8.45975         0.349993     -0.191788      0.114706
O       5.58529      1.85090      0.36753         0.278895      0.275968     -0.432304
O       5.62971      1.84929     12.71656        -0.102864      0.148078     -1.188046
O       5.62416     13.01956      0.27880         0.261643      0.530976      0.968273
O       5.62539     13.18533     12.64011        -0.115354     -0.153471     -0.041083
O       5.60186      1.92122      4.52135         0.185559     -0.491861     -1.183451
O       5.74780     13.11529      4.40866        -0.715928     -0.035393     -0.322813
O       5.57871      1.85189      8.51401        -0.004158      0.057566     -1.802008
O       5.67314     13.07976      8.63014         0.043493      0.096752     -0.915827
O       5.54741      5.64660      0.40956         0.002626     -0.472301     -0.069401
O       5.66802      5.70007     12.71507        -0.461629     -0.590112     -0.500613
O       5.65166      5.52810      4.55497        -0.382381      0.887226     -1.146215
O       5.71974      5.58746      8.51572        -0.426000      0.418353      0.283595
O       5.77391      9.43717      0.27965        -0.781838     -0.498736     -0.988651
O       5.65138      9.16474     12.64619        -0.534904      1.141901     -0.560306
O       5.68741      9.40631      4.49528        -0.983950     -0.345152     -1.064719
O       5.45528      9.46085      8.60650         0.111136     -0.166653     -0.967785
O       9.33745      1.90752      0.36499        -0.116609      0.141557      0.625111
O       9.27635      1.78858     12.68726         0.214446      0.479049      0.483704
O       9.25703     13.04240      0.35614         0.547967     -0.044601     -0.779292
O       9.39366     13.21483     12.71556        -0.228389     -0.308746     -1.059037
O       9.30393      1.93879      4.43979         0.314439     -0.754274     -0.390044
O       9.17694     12.94581      4.50503         0.798913      0.787022     -1.013962
O       9.58727      1.81740      8.63764        -0.303757      0.233933     -0.626580
O       9.23044     13.12589      8.64631         0.097919     -0.275926     -1.673497
O       9.32453      5.58944      0.47461        -0.306123      0.145556     -0.376973
O       9.37466      5.58462     12.61580        -0.039600      0.072757     -0.145165
O       9.46568      5.65963      4.44452        -0.537745     -0.141888      0.506920
O       9.36564      5.60835      8.59204         0.063805     -0.070789     -2.121674
O       9.31828      9.36444      0.41608        -0.100723     -0.065416     -0.508878
O       9.31495      9.46527     12.66441         0.221235     -0.530610     -0.296470
O       9.51103      9.29063      4.34862        -0.691038      0.371115      1.010611
O       9.42419      9.25094      8.52264        -0.267748      0.522763     -1.333136
O       3.73538      1.73648      2.36883        -0.611575      0.430469      0.499541
O       3.70961      1.89116     14.83921        -0.263162      1.023034     -0.197248
O       3.84942     13.13363      2.50393         0.033437     -0.029659     -0.098495
O       3.76730     12.99639     14.71596        -1.444322     -0.171689      0.151358
O      14.98309      1.83584      2.54457        -0.328937      0.152502      0.118804
O      14.96398      1.73528     14.69758        -0.409685     -0.179515      0.014390
O      14.97056     13.08242      2.42172         0.430134      0.312964     -0.079772
O      14.95300     13.24849     14.97911         1.057021     -0.681207     -0.957246
O       3.79297      1.64071      6.52137        -0.469553      0.159151     -0.109394
O       3.68977     13.33863      6.59809        -0.093167     -0.001650     -0.559095
O       0.00090      2.09724      6.44508        -1.136858     -0.419052      0.334731
O      14.98585     12.92973      6.46966        -0.019680     -0.107201      0.390656
O       3.78581      1.80767     10.72827        -0.672012      0.130421     -0.410256
O       3.78520     13.16397     10.66537        -0.459502     -0.145521      0.061361
O       0.10430      1.78158     10.54071        -2.188706     -0.300082     -0.019006
O       0.00232     12.99520     10.70608         0.137391      0.920170     -0.152250
O       3.70335      5.55678      2.61895         0.363283      0.673768     -0.567450
O       3.65350      5.39890     14.64801         1.975487      0.007219      0.915020
O       0.03490      5.68616      2.55105        -0.499797     -0.854558     -0.602288
O      15.00997      5.69524     14.71392        -0.928774      0.217921     -0.067724
O       3.73087      5.86530      6.51179        -0.602357     -0.266273      0.003483
O      14.95533      5.46254      6.58811         0.122021     -0.280572     -0.106099
O       3.73508      5.51265     10.51757        -0.232323      0.514748      0.498622
O      15.00817      5.77070     10.53823        -0.689962     -0.505624      0.423094
O       3.84722      9.43568      2.46015        -0.302382     -0.134425     -0.012467
O       3.64996      9.58795     14.84166         1.266068     -0.639581     -0.268969
O       0.06911      9.55388      2.56204        -0.415560     -0.746236     -0.974093
O      15.00036      9.24898     14.83003        -0.386826      0.245342     -0.555337
O       3.66804      9.11124      6.49644         1.078466      0.220754     -0.086036
O      14.97127      9.45285      6.58996         0.335050      0.339675      0.075528
O       3.65729      9.28412     10.79127         0.810348      0.344126      0.039675
O      14.93916      9.41984     10.64323         0.843592     -0.275004      0.046619
O       7.44216      1.88083      2.47546         1.352997      0.312686      0.027047
O       7.41829      1.68178     14.77916         0.939318      0.152874      0.095808
O       7.57331     13.18104      2.59526        -2.355397      0.001080     -0.726934
O       7.50951     13.23280     14.74061        -0.853640      0.011269     -0.102031
O       7.56627      2.06892      6.59821        -0.735084     -0.373205      0.009090
O       7.39923     12.91510      6.56019         0.897852     -0.421291      0.531438
O       7.53728      1.89711     10.55119        -1.498373      0.249952      0.382531
O       7.51409     13.12045     10.81326        -0.390222     -0.485519     -0.350845
O       7.43963      5.63568      2.58134         0.061982     -0.014325     -0.289074
O       7.43184      5.70398     14.81097         0.401434      0.013863     -0.092462
O       7.50841      5.33333      6.47695         0.428164      0.989089      0.264849
O       7.49092      5.59370     10.67510        -0.665264     -0.017730     -0.044580
O       7.46241      9.26601      2.53738         1.089474     -0.325694     -0.085247
O       7.42690      9.22384     14.69510         0.274620      0.393695      0.081683
O       7.48592      9.45256      6.35560         0.640654      0.439120      0.993196
O       7.42142      9.26100     10.45467        -0.268677      0.836232      0.598334
O      11.24628      1.84131      2.48051        -0.522406      0.193096      0.041790
O      11.24568      2.05834     14.76512        -0.022928     -0.628019     -0.565408
O      11.19145     13.06670      2.57797        -0.840591      0.186348     -0.442412
O      11.26408     13.05890     14.70271        -0.249305      0.239557      0.341213
O      11.22255      1.53117      6.44395         0.197039      0.095775      0.174086
O      11.22345     13.25778      6.51617        -0.379668     -0.172989      0.117629
O      11.23382      1.76565     10.86067         1.321623      0.798874     -0.651560
O      11.23392     13.10207     10.78342         0.740965      0.013950     -0.630965
O      11.29207      5.69828      2.48985         0.382413     -0.379288     -0.479014
O      11.14719      5.46430     14.81077         0.318365      0.476770     -0.383115
O      11.27281      5.77910      6.45622        -0.678696      0.139468      0.417984
O      11.23657      5.60011     10.64754         0.500768     -0.125460      0.255049
O      11.32194      9.39868      2.43405        -0.998793     -0.133294     -0.225258
O      11.22251      9.34906     14.78425         0.246213      0.315429     -0.355716
O      11.27359      9.25380      6.54022        -0.931052     -0.184757     -0.296665
O      11.24332      9.48995     10.62650        -0.812438     -0.400586      0.152871
O       1.85895      3.75618      2.50143        -0.619393     -0.490425     -0.542945
O       1.65833      3.66025     14.81229         0.530759      1.135392      0.194757
O       1.87423     14.99498      2.54852        -0.194601     -0.185960      0.014667
O       2.05371      0.03885     14.87646        -1.109523     -1.895547     -0.581864
O      13.09491      3.71884      2.47598         0.568881      1.036929     -0.109874
O      13.19377      3.75832     14.74865         0.221529     -0.659502     -0.065441
O      13.01920      0.02275      2.46299         0.316155     -0.765846      0.210592
O      13.10695      0.02732     14.70850        -0.751054      0.005229      0.028043
O       1.96274      3.72057      6.56737         0.320492      1.315346     -0.073409
O       1.51087      0.00561      6.38389         0.638522     -0.622183      0.452150
O      12.81004      3.66740      6.44444         0.611420      0.161221      0.567137
O      13.29790     14.94751      6.61123         0.190949      0.394106     -0.141490
O       1.74895      3.68707     10.56179         0.417577      0.380210     -0.110876
O       1.88959     14.94615     10.68913        -0.219790      0.407447      0.036425
O      13.23711      3.76225     10.50745        -0.437213     -0.364634      0.132869
O      13.12672     15.00251     10.75137         0.239209     -0.163453     -0.284014
O       1.84622      7.49957      2.48930         0.500465      0.611072     -0.261121
O       1.95016      7.47440     14.68377         0.261138      0.727805      0.091456
O      13.23285      7.52747      2.39358         0.010688     -0.534680      0.046227
O      13.04125      7.51139     14.77130         0.039983     -0.107000     -0.435730
O       1.66331      7.50496      6.63302         0.163162     -0.482947     -0.826851
O      13.25097      7.44370      6.49638         0.005194      0.304063     -0.077263
O       1.76842      7.45737     10.73980         0.713104      0.333088     -0.127208
O      12.94415      7.56498     10.62556         0.618727     -0.523300      0.126266
O       1.94425     11.27671      2.50254         0.264803     -0.432010     -0.112085
O       1.71652     11.27426     14.80104        -0.091821      0.162544     -0.139917
O      13.06502     11.24991      2.49526         0.221923      0.195462     -0.166617
O      13.16683     11.20882     14.74007         0.158533      1.291004      0.238570
O       1.97455     11.23883      6.56142         0.062028      0.088909     -0.074081
O      12.94061     11.21380      6.50282         0.584382      0.651082      0.096451
O       1.92299     11.25525     10.77206        -0.033554     -0.546412     -0.499893
O      13.13436     11.28219     10.73799        -0.314188      0.134643     -0.386156
O       5.54863      3.68038      2.62766         0.185639      1.049202     -0.972201
O       5.68518      3.69585     14.74304        -0.103963      0.187519      0.201864
O       5.73500      0.02069      2.51925        -0.521140     -1.191833     -0.141601
O       5.35184     14.98214     14.79934         0.910081     -0.619429     -0.348041
O       5.43421      3.78183      6.61008         0.345036     -1.108891     -0.263727
O       5.88859     14.92837      6.46580        -0.600473      1.973675      0.199337
O       5.51872      3.72895     10.71882         0.625425      0.758853     -0.106298
O       5.74060      0.06427     10.63656        -0.684995     -0.679260     -0.270730
O       5.51185      7.47888      2.32889         0.078831     -0.170189      0.668847
O       5.32633      7.49534     14.66206         0.372050     -0.363821      0.523803
O       5.79639      7.56238      6.52149        -0.319722     -1.524190      0.135120
O       5.51737      7.48515     10.64553         0.001995      0.023014     -0.140436
O       5.81784     11.24764      2.29698        -0.582762      0.240651      0.451043
O       5.61116     11.24597     14.60334         0.723965     -0.141087      0.157491
O       5.34945     11.29329      6.49816         0.126186     -1.032877      0.263392
O       5.60675     11.25713     10.69131        -0.135922     -0.319633      0.417722
O       9.39026      3.71846      2.43721        -0.193027      0.430623      0.347008
O       9.13748      3.72350     14.72539         0.058431      0.183542     -0.044502
O       9.29345     14.97407      2.36159         0.428318      0.107014      0.453965
O       9.49101      0.00993     14.94548        -0.245823     -0.466226     -0.779862
O       9.61803      3.70525      6.45110         0.185428     -0.233740      0.609245
O       9.12887     14.86654      6.52188         0.096230      2.722015      0.148616
O       9.28242      3.73951     10.68700         0.817449      0.388214      0.152194
O       9.29005     14.98191     10.65096         0.437692     -0.190833      0.306380
O       9.37211      7.50681      2.55621        -0.204642     -0.527595     -0.390314
O       9.35833      7.48749     14.70607         0.272490     -0.880779      0.104330
O       9.26343      7.47715      6.49355        -0.258810     -0.065634      0.066168
O       9.20981      7.55918     10.64669         1.502590     -1.155982      0.278012
O       9.18526     11.24948      2.50995         0.671595     -1.530190     -0.358152
O       9.31853     11.26382     14.69115        -0.174639     -0.556034      0.242761
O       9.46454     11.21065      6.60369        -0.045576     -0.419035     -0.071735
O       9.34746     11.23335     10.68853        -0.530808      0.241014      0.139772
