  # total energy = -7867.28714524 
CRSYTAL
PRIMVEC
    15.010000000000000    0.0000000000000000    0.0000000000000000
     0.0000000000000000   15.010000000000000    0.0000000000000000
     0.0000000000000000    0.0000000000000000    16.400000000000000
PRESSURE
19.1707 19.4369 9.80493 -0.193577 -0.032703 0.034734
PRIMCOORD
320 1
Pb       3.63451      3.73846      4.03427         0.381918     -0.438040      1.232612
Pb       3.72431      3.69674     16.39110         0.214107      0.713927      0.657206
Pb       3.79412     14.92797      4.10001        -0.130724      0.438690      0.396308
Pb       3.68735     14.97575      0.03017         0.042841      0.276680     -0.110625
Pb       0.00983      3.74401      4.11139         0.254239     -0.194598      0.324707
Pb      15.00048      3.82195      0.02489         0.419292     -0.125322      0.759229
Pb       0.01527     14.96374      4.04404         0.236310      0.281307      0.623864
Pb       0.00304      0.02404     16.35534         0.167316     -0.114473      0.588164
Pb       3.81893      3.75981      8.13428        -0.699738     -0.321912      0.882678
Pb       3.74991     14.97041      8.19969        -0.115649      0.192504      0.562825
Pb      14.99212      3.69846      8.09014         0.372446     -0.126917      1.343931
Pb       0.05816      0.05551      8.21922         0.083305     -0.322825      0.718618
Pb       3.72420      3.70497     12.37411         0.099102      0.071052     -0.016410
Pb       3.76334     14.97216     12.25757        -0.502840      0.047637      0.746205
Pb      14.95260      3.76193     12.26809         0.661024     -0.079749      0.032531
Pb      14.94689     14.99595     12.30816         0.525986      0.853354      0.138892
Pb       3.82361      7.45492      4.13275        -0.630295      0.647256      0.751261
Pb       3.69300      7.52988     16.28699         0.922734     -0.734650      2.221585
Pb      14.92568      7.50613      4.08186         0.945103     -0.159783      0.540134
Pb      15.00956      7.51267     16.35817        -0.039008     -0.470766      0.332934
Pb       3.75269      7.42097      8.28489        -0.134258      0.885939      0.219260
Pb      14.94254      7.45255      8.10301         0.763900      0.855370      1.374488
Pb       3.75088      7.40782     12.36294        -0.733923      0.241476     -0.093660
Pb      14.97857      7.56861     12.30453         0.243150     -0.499667      0.347630
Pb       3.76759     11.27722      4.01292        -0.396141     -0.584430      0.989198
Pb       3.72097     11.37515      0.03123         0.224660     -1.257087      0.304106
Pb      14.91592     11.31615      4.09144         0.842976     -0.418625      0.513384
Pb      14.95632     11.13225     16.36703         0.134099      0.715979      0.710496
Pb       3.73153     11.29265      8.19959        -0.345970     -0.410139      0.600488
Pb      14.92132     11.28483      8.16481         0.771772     -0.949758      1.096173
Pb       3.70670     11.18744     12.33603         0.181419      0.375750      0.506460
Pb      14.94161     11.21163     12.30507         0.555383     -0.045983      0.336724
Pb       7.45198      3.67541      4.17980        -0.011217      0.282438     -0.598912
Pb       7.45699      3.67022      0.03517        -0.181696      0.972149      0.583510
Pb       7.48721      0.03412      4.08358        -0.325515     -0.285735      0.548966
Pb       7.60832      0.04072      0.04634        -0.286701     -0.418360      0.255554
Pb       7.49874      3.77704      8.18488         0.074628      0.113291      1.044716
Pb       7.48109     14.84458      8.20651        -0.364664      0.592626      0.481546
Pb       7.57032      3.68765     12.33000        -0.631089     -0.221266      0.227994
Pb       7.46168      0.06765     12.30548         0.136045     -0.182569      0.459422
Pb       7.51673      7.48663      4.20367        -0.104267      0.004633     -0.303995
Pb       7.44117      7.48045     16.39771         0.257475     -0.226288      1.289405
Pb       7.45408      7.51446      8.07853         0.631528      0.121054      1.262536
Pb       7.42745      7.45551     12.26657         0.248434      0.608114      0.516588
Pb       7.38770     11.20973      4.08770         0.370778     -0.015444      0.706125
Pb       7.46382     11.20835     16.36956         0.328354     -0.014892      0.536574
Pb       7.41930     11.21407      8.24561        -0.048848     -0.250784      0.625418
Pb       7.45265     11.21771     12.39244         0.263211      0.013167      0.103898
Pb      11.35936      3.69616      4.09157        -0.235210     -0.007439      0.662846
Pb      11.20384      3.69643      0.00660         0.070577      0.422299      0.315478
Pb      11.16637      0.00992      4.06934         0.003034     -0.372517      1.141515
Pb      11.32920      0.03999     16.35126        -0.759201     -0.250934      0.701947
Pb      11.21681      3.68921      8.19469         0.401060      0.682426      1.265937
Pb      11.23606     14.98258      8.14691        -0.061494     -0.591836      0.958068
Pb      11.28053      3.74089     12.34674        -0.263911      0.495899     -0.170082
Pb      11.24953     14.89324     12.24698         0.121992      0.522119      0.568983
Pb      11.20105      7.48734      4.04200         0.251419      0.179782      0.838004
Pb      11.29217      7.50024     16.33701        -0.332772     -0.110285      0.650543
Pb      11.34009      7.52690      8.16374        -0.943943     -0.042980      0.580483
Pb      11.23112      7.58474     12.34006         0.223758     -0.956432      0.442933
Pb      11.16005     11.27024      4.07431         0.268964     -0.375592      0.718611
Pb      11.23579     11.34762     16.36301        -0.522741     -0.504343      0.831914
Pb      11.25246     11.22102      8.08462        -0.497580      0.163306      1.404317
Pb      11.29369     11.17537     12.32402        -0.721033      0.711286      0.306304
Ti       1.93433      1.88231      2.11713        -1.884357     -0.361072      0.298304
Ti       1.83929      1.89111     14.48684         0.306618     -0.261667     -1.384167
Ti       1.91636     13.11100      2.11483        -1.431663      0.097672     -0.244821
Ti       1.90175     13.11546     14.42794        -0.636669      0.341270     -1.178688
Ti      13.14049      1.82451      2.21720         0.791181      0.333076     -0.329598
Ti      13.11752      1.93733     14.40198         0.378857     -1.262819     -0.267334
Ti      13.06594     13.09628      2.21011         0.335098     -0.117041     -0.722552
Ti      13.16639     13.14081     14.55393        -0.265010     -0.013055     -1.063243
Ti       1.89836      1.84640      6.21210        -0.343199      0.314099     -0.274011
Ti       1.81419     13.07896      6.24293         0.301368      0.114348      0.485517
Ti      13.10081      1.78333      6.31166         0.832060      0.484568     -1.271273
Ti      13.11105     13.06429      6.30780        -0.201581      0.789766     -0.681562
Ti       1.93396      1.86329     10.35535        -1.441862     -0.404062     -0.323946
Ti       1.85742     13.08161     10.42073         0.292298      1.048944     -1.243946
Ti      13.08563      1.91911     10.33491         1.406739     -1.378432     -0.311766
Ti      13.15885     13.10286     10.39588        -0.601821      1.192843     -1.362433
Ti       1.94505      5.64080      2.18444        -0.866095     -0.222461     -1.668546
Ti       1.88490      5.59737     14.44094        -0.310008     -0.100738     -0.251893
Ti      13.15595      5.63905      2.18179         0.731208     -0.566863     -0.918067
Ti      13.12850      5.56052     14.52448        -0.068222      1.631021     -1.810495
Ti       1.88656      5.65446      6.29827         0.030050     -0.560756     -0.710035
Ti      13.14987      5.61641      6.28057        -0.608697     -0.694369     -0.407425
Ti       1.85268      5.59730     10.27549         0.210216     -0.215876      0.546635
Ti      13.17917      5.63097     10.27078        -1.164431      0.035859      1.000270
Ti       1.92359      9.33262      2.16968         0.696469      0.134136      0.143547
Ti       1.88804      9.41263     14.59869        -0.424181     -0.674126     -1.983461
Ti      13.23088      9.35529      2.11152        -1.618839      0.667491     -0.096031
Ti      13.04601      9.38109     14.45787         0.909609     -0.487391      0.721475
Ti       1.87011      9.34774      6.26506         0.285452      0.286545     -0.001104
Ti      13.11641      9.34322      6.20124         0.572061      0.681106     -0.722904
Ti       1.90141      9.36306     10.39636        -0.595476     -0.786053     -1.374070
Ti      13.07150      9.37605     10.33707         1.157721     -0.752219     -1.501710
Ti       5.58809      1.87646      2.10343         0.775546     -0.030776      0.299725
Ti       5.62908      1.82717     14.49820        -0.560472      0.448992     -1.259677
Ti       5.67111     13.10783      2.01684        -0.284381      1.587954      1.523530
Ti       5.64736     13.13627     14.47776        -0.406364     -0.488792     -0.656808
Ti       5.63668      1.90181      6.25810        -0.909704     -1.588846     -1.284032
Ti       5.56045     13.09656      6.28649         0.279469      0.323728      0.358461
Ti       5.60644      1.87168     10.38093        -0.404578      0.081560     -0.831265
Ti       5.65575     13.10898     10.44463        -1.242198      0.302962     -1.218316
Ti       5.64905      5.62994      2.25181         0.274960      0.661189     -1.057001
Ti       5.62064      5.59341     14.46721        -0.268908     -1.577891     -0.028568
Ti       5.64736      5.64315      6.25623        -0.639691     -0.205912     -0.889285
Ti       5.61682      5.62951     10.37441        -0.781243     -1.217553     -0.399426
Ti       5.65590      9.42478      2.12923        -0.606122     -2.986930     -0.705944
Ti       5.62281      9.30827     14.42959        -0.465537      1.394920      0.060426
Ti       5.54993      9.36718      6.26073        -0.225816      0.363854     -0.532599
Ti       5.61271      9.37663     10.40364         0.205406      0.297887     -1.555826
Ti       9.36805      1.89419      2.16915        -0.640311     -0.134553      0.433607
Ti       9.34505      1.89852     14.49805         0.325105     -0.637590     -0.722617
Ti       9.31349     13.10359      2.20789         0.341989     -0.554716     -1.547229
Ti       9.36232     13.15479     14.43588        -0.148263     -0.676674     -0.394043
Ti       9.33907      1.86430      6.29301        -0.058104     -0.985584     -0.837587
Ti       9.28829     13.05255      6.31434        -0.198036      1.306081     -1.553424
Ti       9.38927      1.87826     10.32407        -0.354616     -0.308449      0.488091
Ti       9.31865     13.09899     10.48276         0.454456     -0.455599     -1.317498
Ti       9.40290      5.63191      2.19808        -1.285516     -0.355948     -0.735784
Ti       9.33350      5.65960     14.42272         0.426015     -0.467111      0.031417
Ti       9.39962      5.56398      6.26817         0.129939      1.458504      0.163954
Ti       9.31316      5.68508     10.43486         1.317779     -2.142799     -2.003987
Ti       9.43767      9.36522      2.21747        -1.418960     -0.437930     -1.055781
Ti       9.31046      9.38214     14.48444         0.160052     -0.163223     -0.872476
Ti       9.35313      9.38807      6.25168        -0.219261     -1.243042      0.102513
Ti       9.39491      9.34372     10.27615        -1.548111      0.937608     -0.318707
O       1.81270      1.79462      0.31406         0.110147      0.013434     -0.087051
O       1.80025      1.84801     12.67030         0.015152      0.498903      0.548534
O       1.80726     13.15374      0.31291         0.335979     -0.059813      0.435274
O       1.99396     13.11573     12.56626        -0.486018     -0.307998      1.257259
O      13.04245      1.88509      0.40345         0.157571     -0.302827      0.243469
O      13.15052      1.84678     12.60275        -0.111528      0.546726      0.624703
O      12.98780     13.12419      0.37504         0.296233     -0.001771      0.340949
O      13.11712     13.18645     12.73210        -0.132733     -0.520525      0.128377
O       1.87245      1.85336      4.40487         0.047759      0.147189      0.115390
O       1.95493     13.11092      4.46531        -0.425385     -0.103409     -0.664372
O      13.11619      1.80548      4.45447        -0.160607      0.327670      0.717512
O      13.11685     12.97345      4.50259        -0.077064      0.346812     -0.150185
O       2.01010      1.77241      8.53267        -0.226624      0.160855     -0.051938
O       1.62768     13.16917      8.54361         0.772174     -0.207811      1.052895
O      13.05173      1.89035      8.50679        -0.225455     -0.420694     -0.144869
O      13.18763     13.08591      8.55108        -0.347066      0.141800      0.725871
O       1.93843      5.55563      0.33859        -0.328008      0.383091      0.927221
O       1.81175      5.49506     12.61045         0.342518      0.297991      0.853436
O      13.16901      5.68128      0.34231        -0.308011     -0.294924      0.743121
O      13.11282      5.57091     12.67400         0.093080     -0.443129      0.698068
O       1.78624      5.51624      4.50741         0.307372      0.313115     -0.418915
O      13.18997      5.60584      4.47382        -0.205838      0.097884     -0.300723
O       1.85845      5.55737      8.48820        -0.040284      0.501597      0.084047
O      13.21743      5.67574      8.47867        -0.508861     -0.072186      0.305703
O       1.85564      9.39096      0.34107        -0.049528     -0.270896      0.086469
O       1.87138      9.38664     12.74708        -0.112443      0.004202      0.469662
O      13.05690      9.34571      0.29716         0.493940     -0.008266      0.145829
O      13.11450      9.52359     12.69245        -0.186203     -0.416914     -1.195214
O       1.92291      9.31595      4.50399        -0.332262      0.235083     -1.006316
O      13.16654      9.34524      4.37638        -0.081877      0.071311      0.534920
O       1.90017      9.34867      8.57339         0.052822     -0.123322      1.225193
O      13.06452      9.29207      8.47094        -0.189773      0.334122      1.576789
O       5.63107      1.86919      0.29841        -0.212435     -0.577326      0.168085
O       5.75295      1.88480     12.61862        -0.524523     -0.127549      1.453282
O       5.67036     13.20166      0.27686        -0.266841     -0.174966     -0.229232
O       5.56295     13.11579     12.67348        -0.022276      0.089478     -0.125244
O       5.62104      1.92001      4.35569         0.176922     -0.011081      1.582291
O       5.52420     13.13006      4.53412         0.351243     -0.364879     -1.495892
O       5.47370      1.76648      8.54348         0.249591      0.469905      0.099200
O       5.66048     13.13510      8.55357         0.046598     -0.236065      0.777586
O       5.57766      5.60742      0.43806         0.214294      0.161679     -0.132806
O       5.56160      5.45283     12.67638         0.024000      0.560711     -0.002797
O       5.61925      5.72883      4.42880         0.280602     -1.008713      0.962522
O       5.73553      5.66219      8.56253        -0.253800     -0.277684      0.194136
O       5.57091      9.33902      0.28831         0.319077      0.025806      0.968063
O       5.64406      9.46995     12.60573         0.227687     -0.862624      0.791474
O       5.46868      9.44026      4.42745         0.783572     -0.051238      0.721725
O       5.52120      9.44996      8.50946         0.246367     -0.507179      1.764350
O       9.41018      1.84725      0.37210         0.050737      0.035654     -0.493240
O       9.24401      1.79405     12.73022         0.266607      0.240142     -0.671403
O       9.40499     12.96504      0.35234        -0.343241      0.656755      0.699005
O       9.30009     13.15914     12.60020         0.444086     -0.356853      0.778450
O       9.32297      1.79301      4.45153        -0.019450      0.573239      0.277834
O       9.25781     13.14574      4.45707         0.171929     -0.448866      0.994621
O       9.38251      1.86198      8.53710         0.230439     -0.082743     -0.231145
O       9.15889     13.01658      8.59800         0.733967      0.465043      0.656783
O       9.25753      5.64871      0.40425         0.725300     -0.282535     -0.127282
O       9.33802      5.70825     12.58466         0.236249     -0.342756      1.095581
O       9.29907      5.60841      4.47443         0.645334     -0.305884      0.280581
O       9.27693      5.53809      8.53128         0.032393      0.342998      1.697307
O       9.22016      9.34641      0.41520         0.630952      0.077296     -0.084791
O       9.30888      9.31080     12.64826        -0.130569     -0.026264      0.992151
O       9.39096      9.27129      4.46240        -0.013646      0.394738     -0.428780
O       9.46793      9.34939      8.44884        -0.221204      0.178144      1.172366
O       3.73367      1.92567      2.44503         0.377881      0.308000     -0.244490
O       3.69737      2.02153     14.76339         0.600243     -1.106287     -0.363037
O       3.77829     13.04618      2.37289         0.402335      0.132582     -0.269438
O       3.68410     13.03010     14.87547         1.000664      0.516033     -0.439989
O      15.00807      1.78902      2.50950        -0.069737     -0.614741     -0.474376
O      14.98586      1.82896     14.74276        -0.732331      0.128402      0.251271
O      14.99147     13.18098      2.41010         0.045650     -0.245054      0.102529
O       0.03734     13.01560     14.76804        -1.418519      0.887177      0.022512
O       3.72569      1.70465      6.49200         0.966805      0.072064     -0.061505
O       3.70265     13.18495      6.61349        -0.445571      0.269091     -0.047959
O      15.00520      2.04216      6.50927        -0.234817     -0.473570     -0.107244
O      14.96063     12.88503      6.59250         0.053707      0.634514     -1.146001
O       3.72380      1.86998     10.88399         0.495608      0.295350     -0.737250
O       3.73876     12.97104     10.56308        -0.108941      0.206733      0.081366
O      14.95289      1.71647     10.57055         0.742658      0.145908      0.175063
O      14.99051     13.25942     10.81346        -0.089940     -1.205079     -0.560725
O       3.73225      5.48555      2.59510         0.963682     -0.143774     -0.459355
O       3.75191      5.42535     14.81869        -0.043047      0.739666     -0.722473
O       0.07084      5.66286      2.39839        -1.481773      0.471685      0.283332
O      14.98910      5.67530     14.76189         0.628688     -0.170135      0.092811
O       3.76276      5.83051      6.58537         0.160144     -0.669070     -0.182062
O      14.99967      5.40369      6.54848        -0.328803      0.776905     -0.289389
O       3.71574      5.55820     10.57701         0.463634     -0.248781      0.252356
O      15.00447      5.72308     10.62124        -0.010071      0.152229      0.097147
O       3.76394      9.37746      2.54850        -0.408013      0.720603     -0.853082
O       3.77494      9.37955     14.82141        -0.843431      0.422774     -0.558505
O       0.01849      9.28657      2.43231         0.749039      0.056136     -0.069545
O      14.94485      9.22286     14.68961         0.690205      0.510349      0.449422
O       3.74812      9.16003      6.65783        -0.859545      0.012292     -0.370630
O      14.97160      9.46779      6.54408        -0.193104      0.004547     -0.150169
O       3.77611      9.40990     10.84810        -0.753818     -0.146416     -0.838870
O      14.94357      9.28947     10.64978         0.539648      0.174557      0.122638
O       7.46820      1.72525      2.39744         0.950127      0.008085     -0.161043
O       7.49721      1.80439     14.88545        -0.084282     -0.354688     -0.356679
O       7.50375     13.16404      2.49102        -1.877634     -0.039167     -0.166907
O       7.46784     13.18422     14.78846         0.412672     -0.127075     -0.202041
O       7.45975      2.02433      6.61171         0.820258      0.236535     -0.407618
O       7.43687     12.85250      6.62483        -0.218998      0.534423     -0.642611
O       7.43954      1.77817     10.67603         1.540879      0.042330     -0.591143
O       7.45588     13.11321     10.80283         0.370285      0.720633     -0.377533
O       7.52614      5.75819      2.52152        -0.895079     -0.124882      0.009930
O       7.46344      5.61018     14.81785         0.329868      0.240314     -0.517946
O       7.51442      5.50922      6.56037        -0.282007     -0.399424     -0.276570
O       7.43366      5.58007     10.84130         0.847624      0.447049     -0.871529
O       7.48502      9.14191      2.50119        -0.502995      0.809074     -0.064273
O       7.44518      9.35578     14.87054         0.097431     -0.497287     -0.895364
O       7.45614      9.55416      6.48653         0.013120     -0.387655      0.028990
O       7.49590      9.23246     10.55196        -0.065255     -0.438620      0.199305
O      11.24685      1.90758      2.49898        -0.152469      0.042091     -0.102187
O      11.23114      1.93830     14.70849         0.263172      0.027827      0.246013
O      11.13881     12.99389      2.52461         1.911446     -0.022516     -0.184951
O      11.20185     13.00807     14.75634         0.784691      0.408355     -0.344603
O      11.23690      1.57056      6.50090        -0.443836      0.687861     -0.105848
O      11.15672     13.25563      6.53343         0.877537     -0.214055      0.240053
O      11.27471      1.93912     10.77585        -1.059568     -0.048674     -0.406763
O      11.24963     13.02216     10.66855        -0.365647     -0.121424      0.046850
O      11.28589      5.47299      2.57404         0.173633      0.402356     -0.663356
O      11.24333      5.53227     14.84062        -0.905772      0.025967     -0.316669
O      11.24927      5.84390      6.63528         0.214145     -0.841926     -0.839163
O      11.27805      5.45398     10.69061        -0.280591      0.475514     -0.501160
O      11.27264      9.42441      2.35487         0.324358     -0.113021      0.416677
O      11.20436      9.30679     14.66121        -0.660370      0.505228      0.309729
O      11.23300      9.25895      6.44257         0.390122     -0.095180      0.238895
O      11.19497      9.43032     10.71619         0.529362     -0.047677     -0.150202
O       1.72347      3.73306      2.42028         0.601865     -0.443786      0.068596
O       1.83330      3.77504     14.86551        -0.693186     -0.810219     -0.493068
O       1.98781     14.99203      2.40416        -0.179092     -0.155365      0.097911
O       1.85092     14.95172     14.68737         0.170272      0.806536      0.395606
O      13.30282      3.73372      2.45035        -0.911181      0.008101     -0.059169
O      13.15120      3.73911     14.82968        -0.015760     -0.605260     -0.021544
O      13.07355     14.91071      2.64821        -0.382183      0.815881     -0.996122
O      13.03746      0.02891     14.86537         0.525640     -0.228268     -0.728576
O       2.03270      3.76860      6.58272         0.038025     -0.824364     -0.221033
O       1.68459     14.98036      6.44786        -0.037556     -0.053120      0.181462
O      12.92471      3.73118      6.59195        -0.027501     -0.084060     -0.608130
O      13.28610     14.93796      6.58895        -0.210316      0.205205     -0.197342
O       1.78004      3.67950     10.52271        -0.145004      1.466520      0.487982
O       1.89343      0.01646     10.68941         0.404859     -1.479115     -0.087323
O      13.35484      3.74062     10.54273        -0.794302      0.843034      0.154663
O      13.07313     14.99683     10.67372        -0.544298     -0.487105     -0.230435
O       2.06306      7.45860      2.50540        -0.779587      0.699380     -0.306515
O       1.96910      7.44956     14.87082        -0.765867      0.406900     -1.091196
O      13.14547      7.52038      2.45626        -0.553245     -0.888048     -0.120837
O      13.05705      7.46562     14.68892        -0.203149      0.408139      0.143802
O       1.67838      7.50708      6.60353         0.137137     -0.933705     -0.254959
O      13.22403      7.52494      6.57216        -0.007989     -1.074912     -0.683220
O       1.95758      7.46511     10.76640        -0.163182      0.314032     -0.318926
O      13.04612      7.52431     10.82188        -0.206465     -0.318265     -0.807547
O       1.88728     11.21819      2.41422        -0.456121      0.341675      0.031214
O       1.72934     11.24266     14.84869         0.773403     -0.423578     -0.337313
O      13.21544     11.23179      2.54847        -0.485712     -0.078643     -0.828228
O      13.14048     11.26833     14.77828        -0.154224     -0.639638     -0.009235
O       1.90340     11.19112      6.57189         0.534101      0.876948      0.058439
O      12.97395     11.21804      6.62260         0.113191     -0.266910     -0.597108
O       1.80218     11.20214     10.67515        -0.342895      0.435186      0.063369
O      13.14012     11.21072     10.63056         0.158515      0.561671      0.285885
O       5.82676      3.72229      2.35852        -0.442662      0.337504      0.510738
O       5.62844      3.65338     14.82142         0.523347      1.191396     -0.154086
O       5.51771      0.00809      2.48148         0.174706     -1.150819     -0.587077
O       5.50647     14.99501     14.76347        -0.150972      0.026504     -0.008481
O       5.51873      3.75350      6.50251        -0.121332      0.394921      0.087667
O       5.82167      0.00335      6.44320        -0.327517     -0.381005      0.283165
O       5.61499      3.69824     10.64732         0.004369      1.087727     -0.282274
O       5.46328     14.99024     10.63431         0.469005     -0.489448      0.093156
O       5.40989      7.53313      2.56319         1.063044     -0.682840     -1.015125
O       5.48670      7.43945     14.66483         0.446696      0.358547     -0.216470
O       5.72147      7.46762      6.60837         0.152890      0.591050     -0.458359
O       5.46360      7.46911     10.77071         0.714735      0.123805     -0.302080
O       5.67714     11.24615      2.31122         0.172857      0.882478      0.352154
O       5.56709     11.24074     14.72623         0.363301      0.005440      0.148540
O       5.36273     11.19886      6.54463         0.380040      0.746299     -0.159025
O       5.72121     11.23674     10.71915        -0.177367     -0.302120     -0.350283
O       9.20158      3.74452      2.42163         0.476338     -0.813379      0.248718
O       9.26263      3.75833     14.63984         0.304048      0.065353      0.429044
O       9.40328     14.92302      2.47727         0.099451      1.626880     -0.460436
O       9.41053     14.95042     14.69431         0.034877      1.134975      0.712985
O       9.59932      3.71805      6.62304        -0.612537     -0.238454     -0.921432
O       9.13447      0.00564      6.54054         0.111275     -0.704820      0.168015
O       9.35664      3.69292     10.63541        -0.479920      0.635276      0.418403
O       9.45135     14.99565     10.69093        -0.314756      0.007658     -0.449267
O       9.38521      7.44237      2.56649         0.892823      1.007147     -0.268725
O       9.39562      7.46504     14.86825        -0.361460      0.480851     -0.591237
O       9.21831      7.48350      6.59678         0.220480      0.045679     -0.534770
O       9.43167      7.45756     10.70607        -0.059658      1.101802     -0.493017
O       9.20553     11.18779      2.57874         0.223052      0.161211     -0.193019
O       9.26186     11.22613     14.79667         0.221142     -0.165280     -0.539282
O       9.45246     11.23408      6.54540         0.343292     -0.206228     -0.202157
O       9.16220     11.19341     10.75879         0.882122     -0.197547     -0.574498
