  # total energy = -7878.52236303 
CRSYTAL
PRIMVEC
    15.6000000000000000    0.0000000000000000    0.0000000000000000
     0.0000000000000000   15.6000000000000000    0.0000000000000000
     0.0000000000000000    0.0000000000000000    17.640000000000000
PRESSURE
-2.92229 -3.12624 2.5582 -0.038565 -0.13606 -0.07777
PRIMCOORD
320 1
Pb       3.86098      3.92378      4.27721        -0.039546     -0.168950     -0.048489
Pb       3.77909      3.74302     17.55139         0.421924      0.336799     -0.151837
Pb       4.09595      0.09560      4.34901        -0.852171     -0.151046      0.278771
Pb       3.98227     15.48689     17.46664         0.059504      0.411673      0.484255
Pb       0.01515      3.89117      4.30566        -0.514440     -0.144325      0.203609
Pb      15.49903      3.84038     17.59770         0.006302      0.189206      0.024924
Pb      15.58263     15.55427      4.32478         0.121483      0.437094      0.374129
Pb       0.21481     15.49795     17.50193        -0.856450     -0.003667      0.632001
Pb       3.95378      3.80137      8.70126        -0.135224      0.080553      0.301631
Pb       3.85920     15.55466      8.74742        -0.214918      0.355379     -0.170308
Pb       0.00366      3.79757      8.64936        -0.155365      0.273138      0.829035
Pb       0.04928     15.49044      8.96524        -0.258978     -0.150846     -0.659342
Pb       3.71910      4.10232     13.08367         0.333690     -0.930431      0.679940
Pb       3.79700     15.58272     13.16108         0.306863      0.583870     -0.349578
Pb      15.47961      3.83009     13.18552         0.455243     -0.031809     -0.541280
Pb       0.02561      0.00388     13.10003        -0.827900     -0.145199      0.465354
Pb       3.81011      7.75852      4.20813        -0.208342      0.267494      0.493406
Pb       3.71272      7.77575     17.56308         0.321599     -0.307836      0.338747
Pb      15.46865      7.75730      4.43547         0.344153      0.141107     -0.405616
Pb      15.46224      7.75935      0.03279         0.113366     -0.287064     -0.068189
Pb       3.88420      7.76824      8.72418        -0.280144     -0.231438      0.025889
Pb       0.05921      7.71732      8.70220        -0.379283      0.603678      0.108858
Pb       3.87964      7.80998     13.16970        -0.485425      0.126800      0.338533
Pb      15.34480      7.83686     13.17964         1.445844     -0.173409      0.109114
Pb       3.88950     11.68854      4.28045        -0.090212     -0.259920      1.133375
Pb       3.93561     11.62956     17.57124        -0.399679      0.353204     -0.113031
Pb      15.54660     11.61427      4.41179         0.116049      0.325234      0.218650
Pb      15.56974     11.58532      0.13453        -0.333799      0.401830     -0.502002
Pb       3.89335     11.67789      8.64385        -0.347834     -0.229745      0.094172
Pb       0.00369     11.62430      8.79792        -0.220433     -0.143455     -0.353682
Pb       3.90973     11.67765     13.21910        -0.090689     -0.534403     -0.380746
Pb       0.09168     11.60861     13.18951        -0.335800      0.035566      0.013613
Pb       7.83020      4.08642      4.28543        -0.673172     -0.784088      0.380024
Pb       7.78085      3.80049     17.46911        -0.312379     -0.012221      0.104128
Pb       7.97140      0.01825      4.28886        -0.443010     -0.087256      0.368656
Pb       7.90791     15.43527     17.60847        -0.329314      0.366452     -0.099229
Pb       7.98141      3.89165      8.68421        -0.775428     -0.024985      0.278094
Pb       7.74363     15.49705      8.66190         0.377623     -0.245493      0.330007
Pb       7.64995      3.87784     12.99533         0.068570      0.014476      0.996986
Pb       7.68083     15.43414     13.20774         0.520868      0.971477     -0.210759
Pb       7.67008      7.88960      4.29780         0.206927      0.751105      0.583471
Pb       7.82496      7.80659     17.54516         0.105540      0.032041      0.414339
Pb       7.84560      7.77807      8.75649         0.222490     -0.056396     -0.289310
Pb       7.76912      7.67855     13.10695        -0.096732     -0.165324      0.553950
Pb       7.74682     11.79361      4.33821         0.671187     -0.327814     -0.155000
Pb       7.74380     11.74297      0.04422         0.298616     -0.154203     -0.250978
Pb       7.70750     11.65484      8.88186         0.150127      0.236212     -1.028892
Pb       7.83557     11.53096     13.20735        -0.138493      0.193090      0.322009
Pb      11.53686      4.02555      4.35112         0.884937     -0.991138      0.092194
Pb      11.70989      4.01418     17.47399        -0.060674     -0.576315      0.828989
Pb      11.76570      0.03111      4.36521         0.128395      0.821491      0.208246
Pb      11.71600      0.00957     17.52188         0.188294     -0.080351      0.371653
Pb      11.69903      3.90794      8.76951         0.214624     -0.335578     -0.048952
Pb      11.63239     15.53086      8.81508         0.182580      0.168200      0.371712
Pb      11.55332      3.92277     13.18959        -0.187974     -0.425302      0.106388
Pb      11.73150     15.53855     13.18463         0.154263     -0.271563     -0.120184
Pb      11.63343      7.81743      4.32120        -0.009132      0.555092      1.086498
Pb      11.69436      7.89165     17.59191        -0.243007     -0.286665      0.683842
Pb      11.77862      7.73585      8.77116        -0.104706      0.493456     -0.338370
Pb      11.68233      7.83741     13.19147        -0.690887      0.208700      0.140558
Pb      11.75623     11.92959      4.47929        -0.322036     -1.084023     -0.255636
Pb      11.66971     11.80891      0.01747         0.082745     -0.429969      0.910501
Pb      11.63591     11.70528      8.69488         0.135333     -0.315432      0.250702
Pb      11.81297     11.71717     13.11160        -0.219124      0.089479      0.537228
Ti       1.95158      1.90545      2.31049         0.320506     -0.654586      2.350279
Ti       1.96346      1.91121     15.56762        -0.121159      0.495910     -0.435741
Ti       1.98742     13.63168      2.53934        -0.555980      0.316504      0.766481
Ti       1.93088     13.58896     15.46140        -0.024514     -0.064777      3.697247
Ti      13.65844      2.00487      2.33731        -0.434586      0.316333      1.432233
Ti      13.72426      1.86143     15.50884        -0.490389     -0.297333      0.897444
Ti      13.70269     13.67549      2.45971        -0.053598     -0.010605      0.872782
Ti      13.65068     13.57429     15.75886         0.327438     -0.278201     -0.906068
Ti       1.87980      1.89548      6.74990         0.849407     -0.481577      1.813376
Ti       1.90205     13.62675      6.78154        -0.490181     -0.471597      1.053348
Ti      13.71459      1.84774      6.88682        -1.452865      0.010411      2.148683
Ti      13.59942     13.67149      6.86823         0.592754      0.092315      1.302564
Ti       1.92041      1.94381     11.28987         0.249466     -0.015880     -0.701459
Ti       1.99211     13.61293     11.22236        -0.498227      0.023977      0.445223
Ti      13.52655      1.92317     11.20282         0.394921     -0.683598      1.082649
Ti      13.75576     13.49793     11.17349        -0.553243      1.698289      0.143350
Ti       1.77166      5.76573      2.37781         0.266865      1.874863      0.364928
Ti       1.80594      5.85332     15.67299         0.669245     -0.287817      1.226656
Ti      13.45768      5.89316      2.42158         1.211824     -0.603201      1.159738
Ti      13.56765      5.82655     15.50955         0.254189      0.318659      1.763698
Ti       1.91086      5.77978      6.80011         0.601308      0.503594      0.750542
Ti      13.59813      5.77258      6.69752        -0.041292      0.748788      0.731020
Ti       1.86476      5.91670     11.13776        -0.590941     -0.480324     -0.890439
Ti      13.53387      5.78524     11.32653         1.139586     -0.379711     -0.602648
Ti       1.83517      9.75012      2.42856         0.294636     -0.390757      0.971867
Ti       1.85338      9.79354     15.69367         0.834229     -0.373770      0.093634
Ti      13.52483      9.76205      2.53225        -0.044138      0.455423     -0.595768
Ti      13.64356      9.71608     15.58664         0.531865      0.549249      1.139311
Ti       1.92365      9.73952      6.75940        -0.319115     -0.223841      2.500768
Ti      13.55114      9.80448      6.77439         0.158700     -0.462870      0.834487
Ti       1.92929      9.71678     11.10097        -1.189890     -0.340501     -1.114019
Ti      13.58082      9.69150     11.22242         0.662580      0.363748     -1.699180
Ti       5.90057      1.93763      2.34277        -0.103637      0.343720      0.016947
Ti       5.95461      1.89678     15.51362        -0.627350      0.117725      0.561886
Ti       5.81881     13.68343      2.45997         0.904913      0.657648     -1.000985
Ti       5.82572     13.65278     15.42330         0.144563     -0.509425      3.896609
Ti       5.88581      1.88628      6.74751        -0.877617      0.432649      1.245767
Ti       5.76509     13.56193      6.69795         0.782307      0.022395      0.510007
Ti       5.81803      1.81517     11.15292        -0.401662      0.424405      1.726524
Ti       5.84626     13.54287     11.22702         0.026754      0.188419      1.376139
Ti       5.77993      5.88811      2.30887         0.516808     -0.103176      0.750319
Ti       5.85377      5.82758     15.68232        -0.626897     -0.789638      2.336184
Ti       5.86416      5.84943      6.84883        -0.055805     -0.362381      1.190981
Ti       5.69233      5.83868     11.19637         0.568542     -0.962212     -0.627676
Ti       5.73713      9.77758      2.32413         1.005308     -0.434695      1.165939
Ti       5.85278      9.65903     15.76754        -0.605986      0.932915     -0.495020
Ti       5.84110      9.68308      6.75036         0.058230      0.299123      1.412572
Ti       5.76872      9.66328     11.19314         0.035564     -0.055805      1.430123
Ti       9.75015      2.01685      2.30980         0.518376     -1.194643      0.647828
Ti       9.87342      1.91135     15.53523        -1.203461     -0.567915      1.639191
Ti       9.90549     13.74486      2.45207        -1.613347     -1.659491     -0.333766
Ti       9.73200     13.60722     15.59308         0.369758     -0.102524      1.498854
Ti       9.75106      1.89994      6.84791         0.861966     -0.481262      0.239124
Ti       9.71963     13.54558      6.77038        -0.465876      0.752470      2.048977
Ti       9.66417      1.91034     11.32669         0.065212     -0.497937      1.122700
Ti       9.69228     13.55736     11.32495         1.037861      1.283030      0.019967
Ti       9.62654      5.97177      2.40540         1.171805      0.185052      0.255338
Ti       9.76382      5.81805     15.65216        -0.635720      1.166003     -0.741931
Ti       9.79948      5.86780      6.70177        -0.518241      0.782829      2.752568
Ti       9.75186      5.92193     11.23547        -0.932552     -1.250549      0.930017
Ti       9.70824      9.80472      2.50612         0.240379      0.859876     -0.320375
Ti       9.89198      9.81228     15.75305        -2.237408     -0.425036      0.096998
Ti       9.66445      9.76040      6.72575         0.857932     -0.452319      1.814062
Ti       9.58911      9.75776     11.19783         2.237901     -0.327253      0.101521
O       1.88489      1.81100      0.64619        -0.005158      0.023909     -2.493483
O       1.89590      1.94530     13.78604         0.226228     -0.087916      0.603322
O       1.97284     13.61578      0.83878        -0.085077      0.106463     -1.219005
O       1.84812     13.62816     13.80309         0.465690     -0.290570     -2.477421
O      13.54938      2.01231      0.65140         0.134560     -0.024363     -1.370194
O      13.71730      1.82653     13.76677        -0.110754      0.558721      0.613131
O      13.69730     13.70060      0.77584         0.138665      0.089635     -2.076936
O      13.63159     13.45883     14.03815         0.097457      0.056828     -0.212586
O       1.92655      2.10319      5.08771         0.068061     -0.172781     -1.988996
O       1.94238     13.45992      5.09527        -0.351629      0.460882     -1.244045
O      13.61523      1.86822      5.22787         0.017887     -0.291870     -2.431755
O      13.55987     13.69583      5.13424         0.087733      0.365629     -1.241460
O       2.03020      1.74154      9.54937        -0.472781      0.362922     -0.065019
O       1.97543     13.55906      9.49820        -0.020727      0.150114     -0.748313
O      13.53456      2.04966      9.47963         0.172002     -0.114050     -0.327372
O      13.70699     13.54951      9.42975        -0.218053     -0.037659      0.450373
O       1.69180      5.89766      0.66383         0.009503     -0.224270     -0.491631
O       1.93647      5.92222     13.96984        -0.046688     -0.188557     -0.928609
O      13.55198      6.00919      0.71102        -0.170614     -0.186663     -0.837945
O      13.61141      5.70486     13.79169        -0.033360      0.198921     -1.148373
O       1.88208      5.76033      5.05451         0.399083     -0.034100     -0.442944
O      13.58284      5.76032      4.97099         0.166244      0.254563      0.083336
O       1.93672      5.88213      9.37111        -0.224047     -0.100961      0.320126
O      13.47236      5.89644      9.60206         0.045849     -0.261824     -0.460973
O       1.85757      9.77762      0.71783        -0.126991      0.282385     -1.715723
O       1.87450      9.67338     13.98039         0.171251      0.203192     -1.214139
O      13.59655      9.72516      0.78762         0.149639     -0.225722     -0.440582
O      13.75389      9.68269     13.86593        -0.437091      0.272498     -1.146576
O       1.78938      9.73854      5.08548         0.123340     -0.083446     -1.929095
O      13.56536      9.86852      5.04523         0.341343     -0.233751     -1.169719
O       1.79819      9.75975      9.30134         0.567824     -0.039917      1.674379
O      13.62532      9.67058      9.45966        -0.124923     -0.012639      0.432381
O       5.82064      1.88199      0.64569         0.351173     -0.351113     -1.219940
O       5.92567      1.81696     13.80474        -0.270732      0.197211     -0.442113
O       5.82913     13.99593      0.70127        -0.085490     -0.974014      1.045662
O       6.02108     13.55160     13.74830        -0.649300     -0.460074     -1.974157
O       5.84479      1.92545      5.03962         0.053808      0.084581     -1.263948
O       5.81560     13.61979      4.96162         0.133745      0.048942     -0.312744
O       5.82589      1.77721      9.45129        -0.006715      0.198440     -1.153021
O       5.92342     13.44976      9.54615         0.062522      0.275973     -1.770434
O       5.86952      5.89941      0.63328         0.032046      0.003281     -1.489961
O       5.83152      5.73676     14.02286        -0.402019      0.520861     -2.303056
O       5.87260      5.85894      5.15107        -0.158640     -0.120787     -1.468495
O       5.58719      5.73930      9.47597         0.578397      0.258147     -0.639284
O       5.78746      9.72843      0.62682        -0.205792      0.364292     -1.667877
O       5.61789      9.69785     14.02421         0.498501      0.368890     -0.732943
O       5.99127      9.73444      5.07670        -0.393678     -0.236053     -2.033578
O       5.87303      9.58843      9.53145         0.095128      0.292978     -1.821013
O       9.77864      1.84270      0.59244        -0.005497      0.448451     -0.501196
O       9.67129      1.87970     13.86334         0.431144      0.166388     -1.092604
O       9.82963     13.48758      0.72255        -0.053459      0.829250     -0.225978
O       9.85243     13.54129     13.90202        -0.403105     -0.229536     -1.343003
O       9.75955      1.76516      5.14934         0.032243      0.334536     -0.737346
O       9.64725     13.67844      5.09158         0.451102      0.012959     -2.542847
O       9.59761      1.94171      9.64346         0.243695      0.277706     -2.337413
O       9.76486     13.60620      9.60309        -0.280016     -0.479132     -0.322370
O       9.57756      5.98655      0.68731         0.249851     -0.415559     -0.480175
O       9.84206      5.85434     13.89625        -0.234914      0.281427      0.066697
O       9.77983      5.87294      5.02413        -0.315116     -0.224006     -2.269387
O       9.90496      5.85006      9.54038        -0.416030     -0.067661     -1.054108
O       9.77297      9.86413      0.75249        -0.011454     -0.255558     -0.523511
O       9.82285      9.68916     14.03922        -0.054585      0.235381     -0.918733
O       9.69695      9.80160      5.05032        -0.217935     -0.263810     -1.772917
O       9.72132      9.68670      9.49213        -0.453723      0.269282     -0.525822
O       3.87412      1.91882      2.60178         0.793128      0.377706      1.196720
O       3.83158      1.91380     16.02814         0.031618     -0.033797     -0.392282
O       3.90207     13.60522      2.95404         0.562112      0.214391     -0.524792
O       3.91617     13.68211     16.02261        -0.498116     -0.198714     -0.994605
O       0.11665      2.01868      2.71652        -1.539655     -0.021428      0.446188
O      15.56960      2.02665     16.10467        -0.458519     -0.700205     -0.647951
O      15.55406     13.64577      2.94914         0.603915     -0.077182     -0.043435
O       0.05344     13.53289     16.11375         0.033619      0.283402     -0.061306
O       3.89577      1.84535      7.09684        -0.056163     -0.004038      0.422533
O       3.86609     13.54576      7.08082         0.505475     -0.112889      0.514120
O      15.54291      1.74382      7.24317         1.651751      0.784833      0.286670
O      15.49099     13.63358      7.32008         1.403213     -0.091455     -0.319022
O       3.88426      1.77828     11.60327        -0.065511      0.271100      0.345163
O       3.90139     13.66355     11.57892         0.640563     -0.329209      0.585934
O      15.51498      1.92024     11.71426         0.637559      0.057484     -0.629535
O       0.07354     13.68284     11.64986        -1.066034     -0.691628     -0.299221
O       3.91335      5.92505      2.81506        -0.214396     -0.557881     -0.338658
O       3.74935      5.72692     16.27643         0.404571      0.478476     -0.838488
O      15.54458      5.88277      2.90333        -0.185210     -0.062789     -0.226942
O      15.38903      5.90081     16.14234         1.142862     -0.451193     -0.470836
O       3.83991      5.75795      7.32943         0.405930      0.000332     -0.865479
O       0.03824      5.84612      7.21920        -1.040119     -0.128039     -0.310180
O       3.76292      5.89690     11.58589         0.605413      0.201048      0.671011
O       0.01468      5.74669     11.56567        -1.092337      0.302137      0.481684
O       3.85080      9.68925      2.83700         0.295726      0.458243     -0.250352
O       3.77881      9.70083     16.08944         0.719031      0.231327      0.656734
O      15.58086      9.70779      2.83174        -1.131125      0.422945      0.455415
O      15.55536      9.94079     15.98046        -0.046748     -0.914622      0.661081
O       3.90095      9.74578      7.22605        -0.162380     -0.127696     -0.398039
O      15.48421      9.69818      7.26283         0.673074      0.235413     -0.466119
O       3.80312      9.59930     11.51692         0.670178      0.720580      0.417285
O      15.54956      9.77921     11.57610         0.908486     -0.536155      0.516562
O       7.81151      1.82054      2.70090         0.436320      0.328087      0.184429
O       7.81119      1.87136     15.96317         0.516480      0.272253      0.329928
O       7.93132     13.69522      2.74657        -1.252561     -0.089593      0.362210
O       7.76843     13.58637     16.07406         0.120044      0.200054     -0.439951
O       7.78473      1.88088      7.21911         0.481458     -0.199257      0.112825
O       7.81228     13.52286      7.21657        -1.121592      0.299748      0.278207
O       7.72580      1.92539     11.69071        -0.346543      0.160273     -0.304223
O       7.81036     13.45542     11.75378        -0.184707      0.118370     -0.294882
O       7.84729      6.01756      2.96018        -1.115702     -0.918095     -0.615952
O       7.80503      5.80962     16.04662        -0.486589      0.086475      0.005400
O       7.83893      5.85933      7.23352        -0.493751     -0.214687      0.040875
O       7.70895      5.81431     11.62935         0.305605      0.309171     -0.288465
O       7.81671      9.80951      2.79381        -0.729913     -0.280627      0.177413
O       7.75951      9.87333     16.14331        -0.180938     -0.433374     -0.220085
O       7.79132      9.57403      7.22341        -0.132964      0.654849      0.294244
O       7.78755      9.67550     11.62672        -1.089218      0.302218      0.296821
O      11.73907      2.08489      2.82361        -0.703293     -0.488266     -0.048287
O      11.73401      1.81600     16.02141        -0.012912      1.029738     -0.547660
O      11.76153     13.70553      2.82596        -0.101160      0.258403      0.526204
O      11.70854     13.56846     16.14774         0.140741      0.518864     -0.275643
O      11.65897      1.95013      7.35058        -0.312940     -0.259859     -0.119128
O      11.62789     13.67073      7.26858         1.029960     -0.676969     -0.034905
O      11.63461      1.84273     11.71635         0.087893      0.596586     -0.201624
O      11.75145     13.61734     11.84202        -0.123321     -0.346438     -0.984293
O      11.60176      5.91492      2.93818        -0.181721     -0.885882     -0.859113
O      11.65202      6.05365     16.05200         0.645461     -0.972420     -0.023711
O      11.67088      5.81820      7.16589         1.043601     -0.445873      0.018322
O      11.61307      5.73944     11.69116         0.470987      0.668240      0.267189
O      11.66825      9.75779      2.94662         0.433692      0.025926     -0.059341
O      11.69475      9.72915     16.13568         1.117550      0.098941     -0.383593
O      11.62243      9.83619      7.15326         0.337236     -0.219089      0.290697
O      11.76022      9.68131     11.52368        -1.215356     -0.105108      0.847764
O       1.95149      3.95371      2.77251         0.340160     -0.872621      0.006309
O       1.78911      3.83740     16.10470         0.340323      0.219172     -0.218970
O       1.94939     15.55096      2.95082         0.027889      0.394183     -0.338903
O       1.88656     15.58045     15.94026         0.131309     -0.286976     -0.237825
O      13.62472      3.96077      2.85454         0.064829     -0.142813     -0.315825
O      13.53548      3.98280     16.14727         0.175822     -0.750309     -1.045101
O      13.69655      0.12381      2.88218        -0.110952     -0.526772     -0.094116
O      13.62013      0.00567     15.98199         0.548621     -0.248526      0.146846
O       1.85180      3.77344      7.22925         0.215529      0.537313     -0.038340
O       1.93334     15.49490      7.23025         0.043803      0.511497     -0.073652
O      13.71740      3.86982      7.13628        -0.194144      0.545529      0.444195
O      13.73529     15.57070      7.53490        -1.210300     -0.202563     -0.839694
O       1.95624      3.89403     11.56308        -0.099765     -0.410306      0.122805
O       1.86734     15.54449     11.69850         0.704213      0.239259     -0.098083
O      13.63842      3.81419     11.65836        -0.580901      0.651304      0.186302
O      13.59876     15.51180     11.68222         0.385680      0.139802     -0.479458
O       1.85502      7.85164      2.73589         0.406654     -0.914049      0.775618
O       1.92549      7.73884     16.12786        -0.982782      0.582348     -0.098098
O      13.55073      7.78061      2.86036         0.376173      0.282410      0.400893
O      13.67427      7.78642     15.85329        -0.244320      0.832769      0.426540
O       2.00438      7.78372      7.18830        -0.399462     -0.312996     -0.227420
O      13.53676      7.81034      7.14809         0.292789     -0.824439     -0.145765
O       1.88032      7.79244     11.48544        -0.200662      0.860644      0.346921
O      13.56427      7.71344     11.74760         0.191285      0.195635     -0.229403
O       1.88532     11.68370      3.02658         0.188332     -0.143945     -0.797628
O       2.05547     11.71704     16.00572        -0.215102      0.130275     -0.104866
O      13.53408     11.76117      2.73217         0.539853     -0.564826      0.786606
O      13.66447     11.63087     16.21243        -0.374639      0.252680     -0.196416
O       1.94536     11.65559      7.23574        -0.310423      0.068046      0.053868
O      13.61842     11.75917      7.16622        -0.243029     -0.753766      0.329068
O       1.96050     11.71664     11.70220         0.314904     -1.132415     -0.111843
O      13.73741     11.65935     11.55902        -0.402578     -0.216466      0.444186
O       6.01861      3.93287      2.52407        -0.328198      0.090632      1.221862
O       5.77310      3.82151     16.00767         0.437975      0.131563      0.428584
O       5.89071     15.58646      2.89768        -0.358357     -0.043710     -0.021999
O       5.83602     15.54075     15.82073         0.024903      0.049918      0.377674
O       5.84975      3.81259      7.25021         0.245600      0.217594     -0.202572
O       5.76342     15.45388      7.25143         0.580267      0.327732     -0.466663
O       5.66381      3.96445     11.67767         0.288833     -0.901386     -0.341875
O       5.87907     15.54329     11.61686         0.173508     -0.804212     -0.022687
O       5.94041      7.86727      2.66725        -0.550949     -0.530265      0.683956
O       5.74777      7.79447     15.99185         0.322711     -0.603265      0.401064
O       5.84499      7.79155      7.24733        -0.293384     -0.992426      0.041399
O       5.80501      7.70428     11.61601         0.014766      1.072030      0.594894
O       5.87329     11.67104      2.78405        -0.323821      0.826723     -0.327972
O       5.74329     11.78052     16.17211         0.313621     -0.392134     -0.656686
O       5.85709     11.59511      7.12979         0.156288      0.821152      0.611661
O       5.89691     11.58662     11.52238        -0.678848     -0.145849      0.850691
O       9.63300      3.83091      2.84774         0.226059      1.414091     -0.349304
O       9.81610      3.93475     15.97251         0.140250     -1.031278      0.174660
O       9.83066      0.03685      2.85125         0.261225      0.214148     -0.331877
O       9.79737     15.50603     16.00434        -0.167383      0.500123      0.066569
O       9.75673      3.92369      7.12811        -0.248751     -0.806094      0.296677
O       9.86292     15.40551      7.28591        -1.268469      2.190452      0.116940
O       9.68848      3.92444     11.73570         0.170621     -0.282063     -0.317960
O       9.65094     15.55132     11.61765         0.083155     -0.497660      0.593613
O       9.85586      7.83455      2.82347        -0.853017     -0.171367     -0.078847
O       9.69254      7.77399     16.15868         0.100250      0.830592     -0.160701
O       9.80459      7.74809      7.22450        -0.195427      0.256789     -0.091371
O       9.61510      7.82077     11.64403         0.865184     -0.321865      0.206664
O       9.80082     11.68013      2.99491         0.166978      1.044121     -0.136772
O       9.77772     11.73885     16.18932        -0.169393     -0.624508     -0.470462
O       9.70765     11.68234      7.20009        -0.095612     -0.748065      0.336806
O       9.87180     11.62597     11.68919        -0.877414     -0.366077      0.067394
