  # total energy = -7879.62640075 
CRSYTAL
PRIMVEC
    15.3600000000000000    0.0000000000000000    0.0000000000000000
     0.0000000000000000   15.3600000000000000    0.0000000000000000
     0.0000000000000000    0.0000000000000000    17.440000000000000
PRESSURE
1.66379 1.77602 -3.04536 -0.448885 -0.355201 0.066469
PRIMCOORD
320 1
Pb       3.80606      3.84274      4.37150        -0.079945      0.005817     -0.090245
Pb       3.93995      3.81659     17.34748        -0.707209     -0.148775      0.733361
Pb       3.82466     15.34704      4.31967        -0.221278     -0.343209      0.687105
Pb       3.88658      0.02368     17.39734         0.104137     -0.230660      0.351920
Pb      15.31560      3.82748      4.37656         0.292852     -0.037548      0.342983
Pb       0.05648      3.82923      0.01865         0.039937      0.313464      0.029795
Pb       0.01007     15.31967      4.31945         0.017868      0.004566      0.174106
Pb      15.18292     15.32682     17.41152         1.161240     -0.042545      1.045291
Pb       3.79389      3.90094      8.58564        -0.059301      0.067523      0.548010
Pb       3.82397     15.32694      8.78055        -0.182058      0.175632     -0.000087
Pb      15.14892      3.86140      8.61171         0.610658      0.247957      1.136627
Pb      15.29546      0.11199      8.66002         0.512917     -0.574700      0.975013
Pb       3.87231      3.77844     12.96455        -0.284693      0.326977      1.167362
Pb       3.79557     15.25833     12.99928        -0.128212      0.192747      0.144173
Pb      15.31698      3.73440     13.07678         0.271966      0.597577      0.351520
Pb      15.35030      0.03183     12.94025         0.231953     -0.980644      1.125167
Pb       3.88567      7.69785      4.27590        -0.117456     -0.183141      0.236714
Pb       3.75547      7.66816      0.01816         0.244314     -0.154688     -0.110164
Pb       0.11738      7.67131      4.29816        -0.289954      0.007657      0.617062
Pb      15.34634      7.77363     17.34337         0.010493     -0.863550      0.299585
Pb       3.92763      7.61524      8.68453        -0.801134      0.590872      0.437620
Pb      15.33321      7.63074      8.67123         0.145658      0.382919      0.405106
Pb       3.83243      7.65729     13.06056        -0.563822      0.273297      0.553200
Pb       0.03439      7.68788     13.06000         0.454026     -0.037276      0.560170
Pb       3.71816     11.47614      4.30303         0.004667     -0.007774      0.704721
Pb       3.94846     11.36904     17.33473        -0.509519      0.339649      0.732773
Pb       0.09869     11.60517      4.20061        -0.190062     -0.535473      1.188007
Pb      15.31152     11.46523     17.35581         0.014487      0.257365     -0.059647
Pb       3.79324     11.58005      8.70215         0.202315     -0.772223      0.536871
Pb      15.35884     11.40736      8.65267        -0.209283      0.334574      0.623127
Pb       3.93107     11.51980     13.00526        -0.849915     -0.667842      0.090170
Pb       0.05748     11.48436     13.10394         0.285112     -0.080180      0.066028
Pb       7.67246      3.74395      4.37280         0.265397      0.589054     -0.109520
Pb       7.73224      3.89579     17.27235        -1.502137     -0.515716      1.725313
Pb       7.66893      0.05236      4.30380        -0.345268     -0.812683      0.310772
Pb       7.49900     15.34826     17.33499         0.361329     -0.244685      0.906695
Pb       7.65988      3.81651      8.67305        -0.022277      0.233003      0.868049
Pb       7.69019     15.28594      8.63473        -0.246738     -0.130285      0.291617
Pb       7.77423      3.91186     13.18003        -0.561817      0.068344     -0.090338
Pb       7.71254      0.07862     13.02402        -0.685300     -0.458098      0.316430
Pb       7.57963      7.59452      4.27431         0.098731     -0.189274      0.541718
Pb       7.66847      7.63931     17.41928        -0.882143      0.194165     -0.165807
Pb       7.61293      7.78836      8.62393         0.308094     -0.515302      1.027186
Pb       7.64153      7.63091     13.00185        -0.030782     -0.015326      0.798763
Pb       7.65171     11.44131      4.32612         0.437971      0.025621      0.557537
Pb       7.61420     11.60354     17.31477        -0.465037     -0.621583      1.118898
Pb       7.72446     11.47646      8.68432        -0.720278      0.443769      0.360758
Pb       7.81724     11.61769     13.06846        -0.988138     -1.119369      0.019672
Pb      11.57205      3.75940      4.34258        -0.461841      0.806918      0.582223
Pb      11.51024      3.82980     17.43839         0.173278     -0.163781      0.232577
Pb      11.53875      0.03105      4.23763         0.190474     -0.632436      1.477082
Pb      11.46765     15.32994     17.24791        -0.615742     -0.332843      0.994201
Pb      11.56753      3.97944      8.66019        -0.497738     -0.619352      0.556769
Pb      11.50474     15.28823      8.63788        -0.573223      0.304889      0.932544
Pb      11.52356      3.75177     13.16053        -0.304432      0.238153      0.286298
Pb      11.42581     15.33421     13.01161         0.803574      0.253556      1.012833
Pb      11.56542      7.69104      4.23446        -0.477501     -0.260323      1.468976
Pb      11.44030      7.60769     17.43060         0.339615      0.103519      0.048804
Pb      11.54725      7.65945      8.65460        -0.357412      0.301879      0.227628
Pb      11.44493      7.70013     12.99102        -0.250067     -0.415893      0.665004
Pb      11.55148     11.42662      4.36775        -0.301602     -0.239726      0.316576
Pb      11.42604     11.48900     17.37189         0.065527      0.302445      0.057921
Pb      11.48964     11.50707      8.78069         0.058439     -0.016286      0.129463
Pb      11.49228     11.49372     12.95885        -0.227304     -0.694964      1.015930
Ti       1.99243      1.90982      2.36228        -0.108637      0.065226     -1.675188
Ti       1.98504      1.87896     15.37220         0.244900      0.381978      1.602331
Ti       1.92180     13.50382      2.20398        -0.313398     -0.679242     -1.188789
Ti       1.85814     13.51107     15.47928         0.777436     -0.879444     -1.149309
Ti      13.54958      1.90418      2.42774        -0.373136      0.140970     -0.629890
Ti      13.53760      1.91991     15.48106        -0.675389      0.277005     -1.700900
Ti      13.35355     13.36674      2.37988         0.987060      0.103063     -1.558044
Ti      13.43345     13.45438     15.34163        -0.387067     -1.007703     -0.669144
Ti       1.91375      1.95529      6.74725        -0.026623     -0.487937     -0.881391
Ti       1.82578     13.40743      6.78124         0.202343     -0.028231     -0.584144
Ti      13.45806      1.87902      6.73969        -0.778547      0.595475     -1.819065
Ti      13.35581     13.44881      6.73999         0.063821     -0.798184     -1.202824
Ti       1.90517      1.96059     11.00433         0.235610     -0.508708     -1.430607
Ti       1.85052     13.41148     11.03978         0.262673     -0.786396     -0.676945
Ti      13.40880      1.84330     11.16420        -0.563288      0.655182     -2.115384
Ti      13.37533     13.33768     11.14416         0.571911      0.501493     -1.427921
Ti       1.85411      5.72768      2.39099         0.462830     -0.250243     -1.195703
Ti       1.81473      5.69956     15.36574         0.865566      0.356948     -0.532493
Ti      13.39238      5.78353      2.36237         0.439686     -0.630133     -1.521807
Ti      13.38669      5.74613     15.41027         0.570670     -0.695900     -0.286430
Ti       1.76973      5.74722      6.61927         0.967124      1.118274     -0.168925
Ti      13.38804      5.83623      6.64442        -0.391430      0.050129     -1.256571
Ti       1.87368      5.71397     11.02903        -0.124216      1.255197      0.151898
Ti      13.44778      5.63244     11.24360        -0.419584      0.220213     -1.123833
Ti       1.90949      9.57136      2.34262         0.735105      0.002321     -1.132830
Ti       1.85198      9.58643     15.45550         0.406686     -0.241956     -1.859607
Ti      13.49738      9.54676      2.34163        -1.153443      0.092696     -0.604995
Ti      13.27282      9.53533     15.42232         0.746198      0.400108     -0.614570
Ti       1.91260      9.57762      6.67959         0.429879     -0.464761     -0.987194
Ti      13.40497      9.68386      6.64526        -0.367648     -0.556271     -1.039548
Ti       1.86439      9.57234     11.00564         0.868114      0.337445      1.607138
Ti      13.38578      9.45434     11.12398         0.258838      0.871649     -1.445073
Ti       5.76278      1.85137      2.41036        -0.321537     -0.857093     -2.211260
Ti       5.74540      1.87207     15.31055         0.231492      0.201531     -0.359176
Ti       5.71486     13.29757      2.44851        -0.189024      1.097316     -2.195827
Ti       5.65980     13.37122     15.23811         0.009672     -0.016396      0.609646
Ti       5.73024      1.92276      6.70525        -0.515074      0.172545     -0.583715
Ti       5.58809     13.47857      6.60004         0.542074     -0.811027      0.002846
Ti       5.72393      1.89925     11.07089         0.116867     -0.260074     -0.921963
Ti       5.69234     13.38333     10.99962         0.369479      0.407211      0.456546
Ti       5.71608      5.61931      2.26564         0.394733      0.896475     -1.135586
Ti       5.61592      5.70940     15.45461         0.388737      0.850946      0.026429
Ti       5.74906      5.81744      6.76922        -0.475274      0.072615     -1.254162
Ti       5.71558      5.69480     11.04262         0.286123      0.628682     -0.198441
Ti       5.82139      9.52104      2.36941        -1.779103      0.205836     -1.927774
Ti       5.69024      9.51964     15.33027         0.424207     -0.554560     -0.172800
Ti       5.71744      9.62419      6.59546        -0.820594     -0.140805     -0.089807
Ti       5.75656      9.54266     11.05508        -1.261629      0.239054      0.216273
Ti       9.65829      1.89468      2.45135        -0.556220      0.221454     -2.237601
Ti       9.58299      1.89596     15.46474        -0.591314     -0.149240      0.586260
Ti       9.60221     13.33218      2.40154        -0.831282      0.136173     -1.794535
Ti       9.48545     13.41130     15.37982         0.071971     -0.354052      0.274034
Ti       9.54491      1.91091      6.69086         0.754255      0.252182     -0.846111
Ti       9.49719     13.36754      6.67649         0.312894     -0.050268     -0.019031
Ti       9.55898      1.92248     11.10924         0.177464      0.807254     -0.468349
Ti       9.54249     13.42180     11.10339        -0.399698      0.066115     -2.052192
Ti       9.49294      5.78403      2.26975         0.704864     -0.842934     -0.178330
Ti       9.54985      5.75360     15.47108        -0.593151     -0.451125     -1.835332
Ti       9.50598      5.71347      6.66051         1.167228      0.406194     -0.496092
Ti       9.65208      5.68746     11.09054        -0.647620     -0.372537     -0.058532
Ti       9.56005      9.53525      2.33499         0.437588      0.009752     -0.469485
Ti       9.51023      9.56632     15.40535        -1.346808     -0.193316     -1.402671
Ti       9.57046      9.57639      6.71956         1.144701      0.179124     -1.423769
Ti       9.50573      9.52885     10.95670         0.321636     -0.928800      0.290222
O       2.08015      1.84000      0.51610        -0.358971      0.392768      2.373206
O       2.08012      1.82536     13.65296        -0.635562      0.031472     -0.519628
O       1.79945     13.46999      0.37356         0.331115     -0.169708      1.877924
O       1.79759     13.51727     13.63006         0.194175     -0.166582      1.489430
O      13.58352      1.98117      0.64580        -0.522610     -0.298370      0.246048
O      13.47552      1.85385     13.60529         0.069684      0.159456      2.026298
O      13.35262     13.36222      0.55291        -0.066037      0.037971      1.508726
O      13.52896     13.49434     13.54539        -0.425673     -0.122414      1.355774
O       1.91803      1.93996      4.93799        -0.031130      0.073383      1.230509
O       1.94051     13.27930      4.98604        -0.375791      0.532299      1.227728
O      13.55129      1.83720      4.88803        -0.290002     -0.082778      1.944812
O      13.42748     13.39121      4.91953        -0.052813      0.283616      1.246392
O       1.98005      1.90731      9.16984        -0.431661      0.158861      1.597221
O       1.96314     13.37202      9.21700        -0.409346      0.073845      1.209771
O      13.44526      1.98793      9.26678        -0.065408     -0.396952      1.807624
O      13.21412     13.37452      9.31843         0.406845      0.276682      1.605954
O       1.80514      5.65000      0.59607         0.039654      0.055699      1.080980
O       1.92612      5.82951     13.58171        -0.583137     -0.475538      1.121763
O      13.45131      5.70098      0.47003        -0.251787      0.245027      2.547554
O      13.54091      5.59544     13.62127        -0.499341      0.134750      0.789129
O       1.75320      5.71137      4.81456         0.536434      0.091881      1.209389
O      13.46242      5.81893      4.86559        -0.086044     -0.219377      0.885163
O       1.78601      5.89317      9.24102         0.131287     -0.418752      1.120953
O      13.36270      5.66171      9.39907         0.187996     -0.024432      1.007321
O       1.87824      9.48110      0.51250        -0.439206      0.263548      0.963381
O       1.84655      9.53162     13.63858        -0.224605      0.180333      1.541133
O      13.29962      9.44777      0.49795         0.482379      0.323001      1.590650
O      13.29438      9.51604     13.64179        -0.177498      0.128827      0.483426
O       1.99804      9.61927      4.84331        -0.489737     -0.188738      1.506863
O      13.38229      9.63118      4.82063         0.040685      0.049591      1.857591
O       1.83648      9.61584      9.27188        -0.149641     -0.198487     -1.093327
O      13.24872      9.55034      9.28168         0.618668     -0.096379      2.021513
O       5.69489      1.57297      0.55656         0.168745      1.004346      2.079216
O       5.63496      1.89420     13.51193         0.317330     -0.333871      1.128843
O       5.73654     13.30720      0.57784        -0.036274     -0.097745      2.127339
O       5.68443     13.38320     13.45776         0.253819      0.024899      0.840410
O       5.65936      1.81381      4.87057         0.458911      0.477767      1.477610
O       5.43400     13.51644      4.79631         1.001894     -0.345315      1.786774
O       5.71494      2.02766      9.23939        -0.209233     -0.301380      1.595901
O       5.67716     13.39121      9.22755         0.106125      0.198916      0.306875
O       5.78547      5.74761      0.46135        -0.391185     -0.254225      1.381926
O       5.63340      5.72564     13.70180         0.101889     -0.222716     -0.030277
O       5.80276      5.93984      4.94039         0.045327     -0.545860      1.327648
O       5.69717      5.77690      9.17769        -0.064749     -0.077798      2.054755
O       5.61395      9.53334      0.53256         0.542473      0.234542      1.708258
O       5.73918      9.48084     13.54814        -0.133091      0.605329      0.839661
O       5.80934      9.34631      4.80789        -0.275787      0.507161      1.013615
O       5.67413      9.47534      9.28287         0.336422      0.200620      0.609705
O       9.59993      1.70734      0.61496         0.274425      0.346789      1.985009
O       9.60191      2.03601     13.71241        -0.266377     -0.527513      0.039069
O       9.47470     13.39433      0.53341         0.619666     -0.166391      2.003378
O       9.39197     13.28629     13.58873         0.501531      0.425248      0.383349
O       9.59041      2.14940      4.84141        -0.474080     -0.743896      1.659795
O       9.58807     13.12587      4.92099        -0.091264      0.472971      0.620911
O       9.62939      1.93414      9.35793        -0.464337     -0.234601      0.266883
O       9.47450     13.50254      9.25032         0.126302     -0.030978      2.144825
O       9.40035      5.85292      0.44298         0.797005     -0.217996      1.069344
O       9.35490      5.64779     13.60779         0.878965      0.073916      1.986807
O       9.64509      5.60068      4.87508        -0.669009      0.079376      1.350200
O       9.61167      5.61271      9.33000         0.225194      0.255809      0.080184
O       9.46354      9.48631      0.55216         0.508840     -0.091213      0.602312
O       9.47077      9.58745     13.56911         0.362205      0.010208      1.778078
O       9.70590      9.78133      4.87031        -0.819134     -0.512228      2.082270
O       9.58515      9.58370      9.18102        -0.403489     -0.285352      0.375188
O       3.89650      1.77287      2.85669        -0.735527      1.024639     -0.613803
O       3.95512      1.93361     15.87662        -1.309665     -0.761846     -0.495270
O       3.71043     13.50817      2.74073         0.919981     -0.379330     -0.531532
O       3.82457     13.18522     15.75233        -0.431422      1.241014     -0.508700
O       0.03058      1.88502      2.82560         0.571549      0.033180     -0.365241
O       0.05289      1.75733     15.84596        -0.842606      0.896714     -0.573977
O      15.34509     13.32952      2.74623         0.421551      0.969075     -0.591508
O      15.31266     13.49681     15.87634        -0.473217     -0.506289     -0.497398
O       3.76657      2.00527      7.14920         0.594426     -0.007090     -0.506766
O       3.77352     13.37465      7.27913         0.307144      1.178365     -1.084550
O      15.31872      1.97218      7.20267         0.218625     -0.576862     -0.626074
O      15.25101     13.33337      7.18585         0.726263      0.513879     -0.371073
O       3.72148      1.86633     11.51228         0.843422     -0.002880     -0.795493
O       3.79561     13.36060     11.46287        -0.224126      0.213582     -0.445071
O       0.01052      1.79625     11.47406        -0.307787      1.037537     -0.519173
O      15.30647     13.29254     11.44155        -0.015880      0.630325     -0.406224
O       3.92176      5.73042      2.77314        -0.937768     -0.179803     -0.114862
O       3.75454      5.64491     15.90483         0.145731      0.211680     -0.338678
O       0.02325      5.67456      2.81108        -0.965398      0.338495     -0.497105
O      15.25573      5.64509     15.81694         0.787809      0.181946     -0.149311
O       3.76108      5.90150      7.05444        -0.069154     -0.586219     -0.406371
O      15.21465      5.84981      7.16764         0.386484     -0.600591     -0.451430
O       3.73707      5.77019     11.55428         0.996026     -0.208385     -1.187845
O      15.35541      5.64829     11.58525        -0.099456      0.012058     -0.534145
O       3.76923      9.52155      2.73629         0.910043     -0.212011     -0.096412
O       3.71744      9.52099     15.86269         0.593127      0.214884     -0.441519
O       0.00585      9.60601      2.80016         0.177799     -0.237119     -0.751019
O      15.22182      9.52054     15.76899        -0.012601     -0.078603      0.180440
O       3.80283      9.50072      7.07163        -0.196652     -0.315078     -0.304613
O      15.27875      9.64921      7.04972        -0.092092      0.178385     -0.098599
O       3.75429      9.48298     11.48723         0.911412      0.785647     -0.451043
O      15.27916      9.64166     11.48520        -0.988004     -0.328458     -0.292244
O       7.60503      1.90976      2.88740         1.044347     -0.215108     -0.406713
O       7.62619      1.92282     15.87424         0.217979     -0.405377     -0.709478
O       7.74975     13.30991      2.85990        -0.834019     -0.057120     -0.240995
O       7.53562     13.35810     15.86366         0.531731     -0.088922     -1.091898
O       7.61296      1.94367      7.16808         0.210638      0.039630     -0.714367
O       7.52623     13.37797      7.10590        -0.106407      0.097837     -0.554399
O       7.62295      1.82161     11.53054         0.347885      0.162810     -0.638048
O       7.70221     13.43959     11.47998        -0.380765      0.184281     -0.294758
O       7.70497      5.59392      2.73146        -0.800558      0.466329      0.053967
O       7.58918      5.75114     15.85705         0.358204     -0.378842     -0.463879
O       7.67074      5.81861      7.24096        -0.011453     -0.063894     -0.979841
O       7.52879      5.70957     11.58929         0.232221      0.039474     -1.055022
O       7.64369      9.62137      2.78881         0.545515      0.009592     -0.292185
O       7.61059      9.41684     15.82011         0.092655      0.641155     -0.392374
O       7.57496      9.59485      7.13532         0.812173      0.394248     -0.618090
O       7.65236      9.46302     11.40043        -0.101889     -0.048536     -0.481924
O      11.55715      1.92127      2.96468        -0.195553     -0.355726     -1.421476
O      11.45971      1.94951     15.89933         0.709215     -0.739573     -0.297437
O      11.51322     13.41812      2.83510        -0.138501     -0.069891     -0.573035
O      11.43175     13.35862     15.66450         0.120047      0.434772      0.099239
O      11.37109      1.87714      7.06191         1.178362      0.080552     -0.265665
O      11.37524     13.48023      7.22972         0.949021     -0.169307     -0.978818
O      11.44268      1.97250     11.58915         0.832705     -0.636532     -0.322214
O      11.40466     13.41197     11.61801         0.435091     -0.195190     -0.569237
O      11.51590      5.90468      2.68881         0.164308     -0.793146     -0.638810
O      11.48063      5.60737     15.79981        -0.561321      0.284382     -0.047248
O      11.54527      5.76737      7.13750        -0.640007     -0.553767     -0.314983
O      11.49327      5.62070     11.63591         0.676150      0.095788     -0.411474
O      11.51406      9.42316      2.79415         0.382631      0.702345     -1.179371
O      11.33878      9.54873     15.89134         0.946064     -0.060202     -0.247584
O      11.41578      9.67455      7.15807         0.642901      0.195652     -0.471120
O      11.40099      9.50975     11.47245         1.232336     -0.012615     -0.079790
O       1.90141      3.81927      2.86362         0.632148     -0.799086     -0.456712
O       1.97043      3.79084     15.79352        -0.658511     -0.496345     -0.171572
O       1.94939      0.02595      2.77933        -0.853428     -0.551082     -0.387250
O       1.95318      0.02469     15.90866         0.276178     -0.811818     -0.793700
O      13.47797      3.80203      2.90199        -0.402680      0.751427     -0.915593
O      13.35690      3.77261     15.94337         0.672285     -0.696331     -0.688398
O      13.46236     15.34637      2.77539        -0.085319     -0.674294     -0.237566
O      13.43845     15.32322     15.94487        -0.766233      0.393150     -0.994456
O       1.82742      3.94534      7.09970        -0.007248     -0.943272     -0.222276
O       1.87871     15.35641      7.11162        -0.208311     -0.034487     -0.221632
O      13.46391      3.78979      7.05125        -0.639890      0.489003     -0.387637
O      13.44711      0.00222      7.22062        -0.252235     -0.007047     -0.590123
O       1.92357      3.84725     11.46762        -0.369146     -0.841071     -0.556601
O       1.84947     15.28755     11.41083         0.293846      0.401980     -0.340551
O      13.37989      3.72201     11.64997         0.706167      0.118865     -0.520382
O      13.37718     15.33784     11.49322        -0.262886     -0.143216     -0.287808
O       1.95243      7.63638      2.71623        -0.492761     -0.023840     -0.005034
O       1.95421      7.54293     15.87306        -0.999697      0.674388     -0.153806
O      13.53623      7.63743      2.90321         0.123256      0.191040     -1.228237
O      13.29857      7.61058     15.82029        -0.075473      0.324392     -0.311767
O       1.68416      7.65237      7.03001         0.401917      0.638792     -0.193576
O      13.26212      7.76308      7.06769         0.692217     -0.237256     -0.248002
O       1.80765      7.77197     11.52995        -0.302993     -2.022405     -0.599435
O      13.43817      7.52352     11.59960        -0.335348      1.443344     -0.676457
O       2.08496     11.50143      2.71506        -1.470767      0.369322     -0.806747
O       1.78493     11.44868     15.77886        -0.326050      0.524078      0.085493
O      13.50666     11.43411      2.77503        -0.810415      0.399196     -0.786472
O      13.31746     11.50565     15.80560         0.394166     -0.094333     -0.213279
O       1.97433     11.46604      7.19407        -0.717274      0.048867     -0.449397
O      13.30023     11.60274      7.20789         0.026077     -1.073206     -0.614468
O       1.90226     11.45486     11.53766        -0.117851      0.839983     -0.237697
O      13.37471     11.51799     11.59394        -0.461859     -1.083323     -0.560979
O       5.73219      3.77283      2.67553        -0.163445     -0.357817      0.152076
O       5.70780      3.75359     15.86425         0.577011      0.362084     -0.662848
O       5.77857     15.18198      2.74843         0.393392      1.209643      0.288817
O       5.79248     15.25831     15.71460        -0.753167      0.282251     -0.552821
O       5.70170      3.92745      7.11501         0.086997     -0.712839     -0.571641
O       5.69595      0.08937      7.16298        -0.316258     -1.010463     -0.546212
O       5.77966      3.76933     11.58107        -0.668105      0.713758     -1.104666
O       5.64871     15.30607     11.42692         0.332597      0.468786     -0.327106
O       5.80168      7.64301      2.66276         0.232592     -0.517214      0.069211
O       5.60414      7.66841     15.79364         0.025134     -0.615373      0.016679
O       5.75705      7.71548      7.26384         0.038417     -0.155736     -1.030671
O       5.67154      7.68973     11.65172         0.405304     -1.318535     -1.633422
O       5.61823     11.44332      2.88743         0.614110      0.056756     -0.555700
O       5.65635     11.40843     15.75744         0.752898      0.310835     -0.468494
O       5.52695     11.49613      6.87852         0.751614      0.190117     -0.065256
O       5.73204     11.54048     11.41829         0.224822     -1.112900     -0.209629
O       9.66094      3.82108      2.66132         0.029422     -0.086627     -0.107172
O       9.52185      3.74904     16.02739         0.864839      0.598121     -1.295215
O       9.56360     15.31910      2.95595         0.250721     -0.054960     -0.721687
O       9.46414     15.26083     15.77469         0.460131      0.662228     -0.445028
O       9.50608      3.87067      7.23926         0.271711     -0.632391     -0.995988
O       9.49865     15.29954      7.03514        -0.453089      0.925848     -0.295975
O       9.56169      3.83981     11.56603        -0.510845     -1.176529     -0.080702
O       9.67054     15.35539     11.61070        -0.970516     -0.320325     -0.823229
O       9.50810      7.62914      2.79657        -0.117654      0.021477     -0.494748
O       9.49981      7.56023     15.71021         0.693731      1.121671      0.235795
O       9.70333      7.67795      6.99598        -0.923389     -0.050379     -0.026203
O       9.66682      7.49948     11.46468        -0.700588      1.847960     -0.244964
O       9.67854     11.37854      2.71905        -0.058968      1.321891     -0.349843
O       9.43324     11.48090     15.88228         0.589059     -0.166474     -0.766535
O       9.55948     11.55269      7.35995        -0.331855     -0.463358     -1.275873
O       9.50711     11.32952     11.39156         0.208671      2.339924     -0.064728
