  # total energy = -7881.17133883 
CRSYTAL
PRIMVEC
    15.3600000000000000    0.0000000000000000    0.0000000000000000
     0.0000000000000000   15.3600000000000000    0.0000000000000000
     0.0000000000000000    0.0000000000000000    17.440000000000000
PRESSURE
1.17847 1.03732 0.934423 0.07068 0.383358 0.039718
PRIMCOORD
320 1
Pb       3.73712      3.84268      4.27259         0.207722      0.194524      0.423215
Pb       3.80208      3.84371     17.35611         0.346031      0.492021     -0.445781
Pb       3.81551      0.02659      4.24116         0.179512     -0.463686      0.469652
Pb       3.79565      0.07187      0.05348         0.287318     -0.651503     -0.774030
Pb      15.30047      3.79844      4.35632         0.368520      0.327450     -0.577649
Pb      15.32669      3.88520     17.41046         0.090443      0.386080     -0.599018
Pb      15.25984     15.26478      4.29359         0.388097      0.358905      0.139342
Pb      15.28321     15.29612      0.03023         0.102276     -0.388956     -0.395856
Pb       3.80849      3.77114      8.74787         0.297210      0.160641     -0.569745
Pb       3.85026     15.31072      8.74180        -0.135671     -0.159491     -0.546910
Pb       0.03073      3.71133      8.69350        -0.238541      0.506849     -0.360203
Pb       0.01017      0.03282      8.65248        -0.124740     -0.537735      0.022679
Pb       3.66041      3.86446     13.03523         0.772697     -1.072710      0.520891
Pb       3.79320     15.24267     13.13167         0.034781      0.558961     -0.138666
Pb      15.29696      3.81077     13.03752         0.247764      0.293744      0.163923
Pb       0.03155      0.03658     13.01612         0.051467     -0.627722     -0.452788
Pb       3.82141      7.62684      4.27854         0.239962      0.101963     -0.221501
Pb       3.76772      7.67351     17.38788         0.182168      0.458255     -0.009529
Pb      15.32701      7.64008      4.38883        -0.144289     -0.092079     -0.790408
Pb      15.24809      7.71754     17.34073         0.489645     -0.135782      0.100154
Pb       3.93827      7.58746      8.77681        -0.723761      0.603501     -0.227106
Pb       0.05081      7.62374      8.74589        -0.123731     -0.281661     -0.867588
Pb       3.77134      7.69004     13.02144         0.258799      0.507512     -0.076183
Pb       0.04928      7.65856     12.99835        -0.178675      0.077340     -0.040697
Pb       3.75688     11.50231      4.24747         0.233850      0.211955      0.149590
Pb       3.90167     11.47526     17.43848        -0.201224     -0.174460     -0.435264
Pb      15.30194     11.54767      4.31301         0.350139     -0.452051     -0.157157
Pb      15.33126     11.51306     17.39020         0.595454     -0.151506     -0.043497
Pb       3.75063     11.54275      8.65046         0.276723     -0.324433     -0.324054
Pb      15.31791     11.40372      8.65095         0.036064      0.800994     -0.569748
Pb       3.78776     11.54713     13.10225         0.583225     -0.387560      0.098268
Pb      15.28667     11.48691     13.15517         0.396936      0.203119     -0.611034
Pb       7.67494      3.78995      4.42447         0.049674      0.431486     -0.675645
Pb       7.63295      3.90224     17.31887         0.697683     -0.316871     -0.230039
Pb       7.70630      0.09557      4.23407        -0.572422     -0.382644     -0.079048
Pb       7.72643      0.00693     17.42406        -0.131270     -0.026730     -0.543963
Pb       7.72320      3.66375      8.76954        -0.514064      0.618951     -0.183677
Pb       7.62602     15.21500      8.63726        -0.005139      0.230543      0.013505
Pb       7.64499      3.78938     13.19432        -0.193901     -0.425217     -0.749200
Pb       7.58021     15.30963     13.14829         0.440766     -0.062146     -0.143284
Pb       7.59997      7.65724      4.31322         0.353766     -0.424240      0.074965
Pb       7.76272      7.61468     17.41025        -0.688238      0.515579     -0.321728
Pb       7.54310      7.69534      8.68271         0.625449     -0.051248     -0.450030
Pb       7.54268      7.61851     12.99840         0.173248      0.250585     -0.351165
Pb       7.67550     11.52063      4.34247        -0.311325      0.414665     -0.690692
Pb       7.75510     11.50031      0.07160        -0.098331     -0.264874     -0.461496
Pb       7.54898     11.42724      8.67839         0.229543     -0.173003     -0.217579
Pb       7.61902     11.39769     13.10724        -0.179764      0.491508     -0.193715
Pb      11.44920      3.82167      4.39303         0.147918      0.268244     -0.386919
Pb      11.55506      3.82395     17.35001        -0.664678      0.134453     -0.611379
Pb      11.37723      0.02836      4.28422         0.314447     -0.127349     -0.482201
Pb      11.60722     15.34678     17.36505        -0.080990     -0.325327     -0.079897
Pb      11.48238      3.81123      8.73818         0.256104      0.116510     -0.185774
Pb      11.49337     15.21853      8.64450         0.650898      0.326739     -0.166303
Pb      11.52733      3.83644     13.08441        -0.281053     -0.044803     -0.372054
Pb      11.56115     15.32996     12.95378        -0.071526      0.014167     -0.082175
Pb      11.42656      7.79145      4.31890         0.438370     -0.895432      0.088813
Pb      11.56092      7.58526     17.41176        -0.129377      0.630648     -0.570898
Pb      11.41687      7.60127      8.73389        -0.214791     -0.324617     -0.923201
Pb      11.55339      7.73204     12.88295        -0.383235     -0.256330      0.407803
Pb      11.49133     11.47964      4.44896         0.404035      0.426066     -1.008078
Pb      11.56501     11.51982      0.01232        -0.351230     -0.274884     -0.133711
Pb      11.50317     11.53149      8.73601         0.034727     -0.178440     -1.132610
Pb      11.44655     11.45113     12.99698        -0.314384      0.360016     -0.083889
Ti       1.95260      1.94364      2.22509        -0.837450      0.127003      2.114648
Ti       1.88830      1.90065     15.45631        -0.072806      0.266889     -1.255723
Ti       1.93889     13.50197      2.33208         0.218674     -1.393035     -1.556366
Ti       1.96389     13.43878     15.40393         0.265061     -0.526149      0.984351
Ti      13.50406      1.87619      2.29675        -1.040476      0.198754      0.605692
Ti      13.44468      1.91561     15.34083         0.591556     -0.327317      0.815280
Ti      13.47492     13.39005      2.32924        -0.814464     -0.544454     -0.334163
Ti      13.46866     13.39824     15.36301         0.349979      0.157651      0.988775
Ti       1.90723      1.87985      6.63700         0.008017      0.383136     -1.137912
Ti       1.94997     13.41927      6.64813         0.430455     -0.153295      0.451522
Ti      13.41563      2.00930      6.61163        -0.170871     -0.969894      3.111149
Ti      13.50137     13.51150      6.62572        -0.005148     -0.840553      0.473937
Ti       1.88892      1.93769     11.02834         1.280729     -0.918305      0.175902
Ti       2.05503     13.46316     11.04953        -2.922196      0.438047     -0.349283
Ti      13.47286      1.95182     10.99691        -0.332648     -0.654693     -1.444596
Ti      13.46309     13.39940     11.04597         1.296842      1.450145     -1.227909
Ti       1.89954      5.77718      2.31650        -0.770078     -0.475733     -0.571321
Ti       1.93384      5.77217     15.38140        -0.819955      0.330407      1.310019
Ti      13.37329      5.75805      2.26096         1.481069      0.067759      1.936547
Ti      13.41989      5.74051     15.29198         0.320835      0.313718     -0.381017
Ti       1.96383      5.69962      6.60806        -1.333242      0.551170      1.127456
Ti      13.48511      5.71386      6.71981        -0.626315      1.028961      1.778841
Ti       1.95749      5.74545     11.04425        -0.812979      0.026799     -0.988375
Ti      13.43035      5.78899     11.07124        -0.070722     -0.389372      0.553280
Ti       1.91977      9.57284      2.33322        -0.287843      0.021848     -1.198358
Ti       1.90974      9.58039     15.36984         0.937014      0.198387      1.262364
Ti      13.39358      9.51828      2.32294         1.105044      0.640836      0.552168
Ti      13.42735      9.62319     15.33440        -0.131675     -0.754581      0.549924
Ti       1.86123      9.53106      6.63860         0.742613      0.965876      0.991244
Ti      13.38950      9.54718      6.64599         0.364935      0.698990      0.141891
Ti       1.85709      9.71686     11.02390         0.930333     -1.179917      0.939142
Ti      13.40695      9.64027     10.96634         0.682792     -0.416882      0.303310
Ti       5.70002      2.00660      2.27786         1.360916     -0.621496      0.538765
Ti       5.74903      1.90900     15.39357         0.517851      0.285882      0.152835
Ti       5.72706     13.48942      2.22666         0.656395     -0.356204      0.449567
Ti       5.80805     13.42526     15.57673        -0.668335     -0.741537     -1.668076
Ti       5.72814      1.94076      6.63799         0.368148     -0.024520      1.135986
Ti       5.80823     13.41882      6.57368        -1.012038     -0.218146     -0.421158
Ti       5.75169      1.81691     11.05746         0.435109      1.579998      1.200116
Ti       5.83211     13.41478     11.09755        -0.108005     -1.036369     -0.238075
Ti       5.80204      5.74865      2.28350        -0.025190      0.124455      0.643928
Ti       5.75057      5.77618     15.33779        -0.065240      0.202430      0.732508
Ti       5.66940      5.82708      6.71220         1.265310     -1.250798      0.690714
Ti       5.67426      5.64384     11.08488         1.748894      0.158646      0.203979
Ti       5.78967      9.61961      2.37265        -0.647436     -0.204625     -1.186254
Ti       5.81489      9.56474     15.38991        -0.370362      0.064201      0.607870
Ti       5.64669      9.65109      6.57509         0.433083     -0.104822      0.830533
Ti       5.66109      9.58880     11.01329         0.191700      0.866392      0.818051
Ti       9.58470      1.96882      2.26939        -0.283657     -0.650119     -0.207159
Ti       9.71492      1.78581     15.36786        -1.495631      0.900805      1.326599
Ti       9.58070     13.48733      2.22531         0.348724     -0.563993     -0.076373
Ti       9.65323     13.31227     15.40491        -0.936193      0.526177      0.252679
Ti       9.58077      1.86948      6.73642         0.372919      0.084455      0.451885
Ti       9.61751     13.39006      6.59631         0.234656     -0.693662      0.405825
Ti       9.67443      1.85417     11.02825        -1.394212      1.023903      0.596975
Ti       9.55589     13.40519     10.99772         0.017924      0.009655      1.043703
Ti       9.68433      5.77018      2.27393        -1.388213      0.024801      0.950319
Ti       9.54398      5.83900     15.24131         0.619783     -1.336414      0.092728
Ti       9.55756      5.68963      6.70149         0.251697      1.717420     -0.406489
Ti       9.54774      5.75048     11.14944        -0.178990     -0.249104     -1.104836
Ti       9.58472      9.63831      2.31688         0.340521     -0.056256     -0.171545
Ti       9.64445      9.54249     15.32344        -0.802895      0.498627      1.727930
Ti       9.61693      9.59006      6.49064        -1.005041     -0.485172      4.526946
Ti       9.50127      9.60847     10.95329        -0.473667     -0.192275     -0.146594
O       2.11799      1.99478      0.50633        -0.468541     -0.132691     -1.485264
O       1.84135      2.04433     13.67069        -0.049322     -0.525259      0.497422
O       1.98493     13.55557      0.51769        -0.113349     -0.203985      0.868594
O       1.80708     13.60203     13.66707         0.396923     -0.592165     -1.381272
O      13.32572      1.72510      0.57623         0.204580      0.510989     -0.756376
O      13.48517      2.02990     13.60941        -0.090065     -0.371062     -1.057092
O      13.63015     13.38182      0.56246        -0.404421      0.326997     -0.852703
O      13.53832     13.48842     13.65097         0.002321     -0.057549     -1.462148
O       1.87823      2.02721      4.84280         0.080126     -0.663943      0.721331
O       2.10599     13.35877      4.91091        -0.576741      0.399710     -0.987189
O      13.53179      1.96028      4.92546        -0.209562      0.007183     -2.761071
O      13.55196     13.48389      4.85850        -0.335954     -0.200276     -1.126694
O       2.05264      1.87067      9.26053        -0.541982      0.305606     -0.255898
O       1.95926     13.64471      9.30248         0.481621     -0.640243     -0.532908
O      13.48859      2.00887      9.16385        -0.114867     -0.218164      1.445056
O      13.46398     13.48988      9.24582        -0.294699     -0.386143      0.409307
O       1.88922      5.82016      0.52565         0.055484     -0.483976      0.387558
O       1.87101      5.74603     13.66324         0.107789      0.243833     -1.997930
O      13.44332      5.80691      0.55763        -0.367404     -0.204734     -2.379277
O      13.54051      5.72444     13.50918        -0.359846      0.078647      0.096652
O       1.79622      5.73168      4.87464         0.551287      0.080205     -1.178339
O      13.30200      5.64879      5.05201         0.428978      0.018259     -2.857636
O       1.98282      5.63606      9.26505        -0.074885      0.361890      0.645213
O      13.48844      5.75856      9.35839        -0.084136      0.076199     -1.674997
O       2.01918      9.44742      0.51744        -0.376169      0.294639      1.293065
O       1.90708      9.58104     13.61853        -0.004775      0.005510     -0.624491
O      13.53257      9.48226      0.60387        -0.309739      0.117941     -2.206517
O      13.39185      9.54009     13.59859         0.073282      0.429578     -0.665740
O       1.99841      9.69499      4.90957        -0.344098     -0.576569     -1.084863
O      13.37153      9.65554      4.85228        -0.054157     -0.157245     -0.093322
O       2.01341      9.68466      9.29927        -0.739271      0.032947     -0.853468
O      13.59582      9.79523      9.21213        -0.618166     -0.619886      0.275217
O       5.63649      1.99371      0.53563         0.204121     -0.009774     -0.489689
O       5.77544      2.17638     13.67271        -0.018129     -1.105213     -0.453683
O       5.69376     13.57578      0.46087        -0.089711     -0.366523     -0.207400
O       5.90640     13.33039     13.73729        -0.349608      0.268269     -0.325589
O       5.94803      1.83847      4.90655        -0.475923      0.393062     -0.451625
O       5.76123     13.37461      4.78756         0.216155      0.094556      0.551605
O       5.73143      1.92446      9.30892         0.094628     -0.209031     -0.535566
O       5.84890     13.51731      9.33941        -0.254291     -0.035007     -0.287208
O       5.81776      5.78177      0.54209         0.055691     -0.088026     -0.535275
O       5.74016      5.81017     13.60268         0.061399     -0.139687     -1.319760
O       5.77859      5.75402      4.99239        -0.113350      0.093922     -0.827123
O       5.54740      5.73516      9.34168         0.199712     -0.085031     -1.018043
O       5.81702      9.49654      0.60812         0.020694     -0.124964     -0.225777
O       5.70029      9.64829     13.63940         0.161021     -0.001530     -0.782797
O       5.67024      9.62019      4.81303         0.043516     -0.046259     -0.507511
O       5.66827      9.70319      9.27301         0.333976     -0.382187     -0.806997
O       9.35431      2.01852      0.53757         1.060193     -0.348030     -1.071560
O       9.82403      1.77870     13.69007        -0.293859      0.292370     -2.168559
O       9.59719     13.41464      0.44581         0.126527      0.220002      0.016958
O       9.45940     13.27723     13.68009         0.339831      0.173978     -1.033739
O       9.59797      1.84568      4.98242        -0.113840     -0.044598     -0.696640
O       9.56792     13.30226      4.83842         0.239049      0.416617     -0.343441
O       9.61561      2.03388      9.26706         0.292349     -0.261851     -0.633578
O       9.63215     13.31200      9.26572         0.109812      0.317847     -1.069350
O       9.57898      5.70824      0.52863         0.341175      0.202899     -0.084030
O       9.51726      5.94828     13.46782        -0.023960     -0.267299     -0.159763
O       9.65388      5.75478      4.93646        -0.134770     -0.394219     -0.389484
O       9.66085      5.77675      9.33412        -0.071660     -0.049008      0.022537
O       9.61296      9.61050      0.58011        -0.155763     -0.074512     -0.653102
O       9.63599      9.64763     13.60937         0.260291     -0.111391     -1.287985
O       9.60861      9.67641      4.81005         0.411180      0.223217     -3.216603
O       9.37912      9.64582      9.15670         0.634978     -0.168207      1.096154
O       3.83235      1.89074      2.70462         0.316518      0.002077      0.128902
O       3.84495      1.93114     15.67319        -0.781140      0.503402      0.705256
O       3.86198     13.51701      2.69628        -0.225261     -0.141967     -0.020677
O       3.82557     13.25397     15.68096         0.289239      0.638875      0.472505
O       0.06467      1.93578      2.56662        -0.532828      0.111105      0.044706
O      15.27531      1.88842     15.84345         1.300446     -0.159946      0.318705
O       0.03359     13.41523      2.69792        -0.210563     -0.319102      0.499259
O       0.09836     13.30485     15.81738        -1.016348      0.524798      0.259379
O       3.85536      1.96932      6.94245         0.191102     -0.285483      0.185434
O       3.85369     13.46752      7.03051         0.627728     -0.027101      0.435844
O      15.33267      1.88600      7.05105         0.778995      0.459192      0.115937
O       0.06870     13.48910      6.92943        -0.651615      0.300308      0.454713
O       3.82453      1.90040     11.48582         0.169816      0.571525      0.057068
O       3.84136     13.37487     11.45447         1.028098      0.048794      0.560799
O       0.01146      1.98114     11.39038        -0.234466     -0.321618      0.002644
O       0.06780     13.66204     11.32412        -0.551568     -1.148126      0.677991
O       3.83112      5.74091      2.69808         0.176340     -0.165054      0.143475
O       3.82518      5.72260     15.68942         0.244940     -0.016699      0.348710
O      15.31899      5.71999      2.65334         0.619019     -0.143632      0.554469
O      15.27829      5.63261     15.70307         0.087779      0.605981      0.611737
O       3.78610      5.73327      7.10814         0.831975      0.084994     -0.073399
O       0.01738      5.74154      7.01571         0.788162      0.292228      0.644610
O       3.85796      5.59428     11.46433        -1.605993      0.549128      0.300470
O       0.00223      5.87725     11.38062         0.355672     -0.446213      0.193547
O       3.85775      9.55187      2.60317        -0.653992     -0.204576      0.755599
O       3.93340      9.36864     15.70769        -0.803282      0.645749      0.432207
O       0.00145      9.56155      2.67382         0.766315      0.257601      0.668667
O       0.03527      9.57670     15.77218        -0.631632      0.156366     -0.131682
O       3.82798      9.64352      7.08549        -0.345170      0.205421     -0.030793
O      15.32924      9.63295      7.01175         0.656443     -0.001982      0.252679
O       3.80295      9.82912     11.41952        -0.457771     -0.905120      0.378146
O      15.31547      9.58528     11.51572        -0.144854     -0.217282     -0.402153
O       7.69163      1.95027      2.75156        -0.841529      0.206880      0.141605
O       7.69785      1.87086     15.64056         0.151152     -0.250524      0.467787
O       7.70439     13.44368      2.52353        -0.530874     -0.269620      0.441845
O       7.63691     13.51427     15.84701         1.584417     -0.456678      0.626015
O       7.69857      1.87503      7.17640         0.063239      0.112463     -0.158691
O       7.70790     13.41591      6.96355         0.592874     -0.090964      0.268439
O       7.70356      1.80993     11.47489        -0.571002      0.617002      0.143101
O       7.68735     13.29963     11.35714        -0.053096      0.982050      0.528911
O       7.75763      5.77421      2.79288         0.136780     -0.253822     -0.250739
O       7.68651      5.68574     15.66470         0.259302      0.569563      0.283288
O       7.62200      5.82580      7.14412         0.483454     -0.040884      0.041049
O       7.60071      5.82365     11.30821         0.467531      0.000444      0.616847
O       7.65209      9.60322      2.66046         0.943278     -0.148049      0.725851
O       7.73852      9.53152     15.70429         0.150133      0.267160      0.356431
O       7.57118      9.64225      6.89009         0.853169     -0.098295      0.242391
O       7.66399      9.60101     11.43645        -0.348595     -0.113477     -0.119494
O      11.51097      1.75842      2.69960         0.543373      0.332074      0.161557
O      11.59466      1.89577     15.71038        -0.724036     -0.354631      1.049661
O      11.52805     13.47314      2.52223        -0.207198      0.699441      0.716546
O      11.53599     13.24394     15.67997         0.953508      0.524610      0.453627
O      11.52688      2.04705      7.03308        -0.152089     -0.394138      0.098364
O      11.57442     13.42758      6.92930        -0.723157      0.041144      0.556139
O      11.55277      1.92032     11.44329         0.220472     -0.605575      0.000764
O      11.49990     13.48276     11.37491         0.322357     -0.186190      0.332020
O      11.53301      5.78554      2.66552        -0.645207     -0.103319      0.310379
O      11.54431      5.75395     15.53198        -0.322967      0.186419      0.869827
O      11.53231      5.88489      7.02065        -0.445056     -0.320635      1.213694
O      11.48860      5.83372     11.39170         0.182505     -0.274400      0.507536
O      11.56919      9.44626      2.57930        -1.325052      0.703569      0.769382
O      11.50085      9.58487     15.82302         1.001341      0.165143      0.043719
O      11.54094      9.61990      7.10205        -0.180030     -0.190340     -0.193847
O      11.48682      9.65280     11.40888         0.154971      0.145287     -0.542271
O       1.98010      3.78928      2.79068        -0.322342      0.322992     -0.763917
O       1.75751      3.91609     15.73995         0.859899     -1.708345      0.849736
O       1.86361     15.30105      2.71770         0.398338      1.883631      0.159595
O       2.04239     15.32126     15.71621        -0.463334      1.240922      0.564211
O      13.40317      3.87627      2.63759        -0.118788     -1.436818      0.247176
O      13.35673      3.75867     15.82043         0.365172      0.899208      0.136961
O      13.59224     15.31349      2.60226        -0.306132      0.661123      0.722161
O      13.46453     15.26114     15.83123        -0.185041      0.565189      0.068983
O       1.93800      3.87121      6.93220        -0.125460     -1.276345      0.713189
O       1.96338      0.03889      7.08391         0.042520     -0.046550     -0.155338
O      13.49843      3.87612      7.14706        -0.137836     -0.741242      0.020344
O      13.41773      0.03677      6.97349        -0.114608      0.106371      0.367762
O       1.84100      3.80573     11.42529         0.285009      0.744052      0.113210
O       2.02874      0.01688     11.41546        -0.122596      0.412178      0.689060
O      13.34606      3.80785     11.38524         0.483369      0.690208      0.299989
O      13.55042      0.00313     11.35100        -1.003868      0.644987      0.571640
O       1.94372      7.59342      2.75586        -0.249392      1.284408      0.326357
O       1.92528      7.66923     15.79167        -0.380755     -0.349963     -0.109610
O      13.53395      7.65602      2.66226        -0.331773     -0.760413      0.857131
O      13.46398      7.69809     15.68559        -0.139836     -0.489130      0.358146
O       1.97389      7.70487      7.09067        -0.415518     -0.547216     -0.038902
O      13.58790      7.71740      7.02040        -0.391914     -0.249144      0.496548
O       2.00224      7.66273     11.35203         0.046294      0.090845      0.337092
O      13.34595      7.72362     11.29395         0.345598      0.502648      0.210779
O       1.88491     11.55509      2.73981         0.407401     -0.804394     -0.271197
O       2.05548     11.44668     15.87803        -0.581855     -0.479765     -0.372866
O      13.26166     11.48479      2.50868         0.844337      0.353290      1.129930
O      13.55728     11.51454     15.67488        -0.329591     -0.811374      0.537685
O       1.91585     11.52815      7.03795         0.042573     -0.041936      0.445452
O      13.47175     11.57530      7.01553         0.024551     -0.272424      0.262210
O       1.81125     11.49139     11.51712        -0.085713      1.665130     -0.000543
O      13.52180     11.54140     11.44069        -0.284355     -0.200610      0.231354
O       5.79027      3.89423      2.71161        -0.159459     -1.133346      0.284922
O       5.84363      3.87134     15.81710        -0.728809     -0.510834      0.086916
O       5.80616      0.01163      2.58494        -0.148837      0.784814      0.471617
O       5.69101     15.28403     15.77222        -0.220063      1.919105      0.177630
O       5.83001      3.83900      7.15725        -0.286962     -0.423495     -0.362904
O       5.84299     15.26781      7.05591        -0.301128      1.085289      0.044010
O       5.88512      3.81320     11.56499        -0.550459     -0.282896     -0.603636
O       5.71459     15.34283     11.51477         0.112468     -0.693208      0.311332
O       5.80720      7.55736      2.80439        -0.328117      1.268399      0.124261
O       5.91970      7.64025     15.68921        -0.212871     -0.321872      0.461244
O       5.67283      7.71855      7.12572        -0.007500     -0.076964     -0.092910
O       5.59804      7.72108     11.33001         0.001431     -0.681751      0.532772
O       5.73977     11.52823      2.54018         0.075147      0.280560      0.370696
O       5.76679     11.48439     15.92771         0.344328     -0.759065      0.193981
O       5.78591     11.53160      7.10746        -0.495985      0.337311     -0.356178
O       5.78211     11.48767     11.37073         0.000150      0.822417      0.611703
O       9.66185      3.74029      2.71924         0.247439      2.193407      0.480413
O       9.61715      3.93560     15.65464         0.400839     -0.833203      0.267417
O       9.48818      0.05048      2.63304         0.582405     -0.911044      0.383180
O       9.68467     15.26381     15.61542         0.147116      0.476795      1.051763
O       9.65382      3.86040      6.97237        -0.521010     -0.774627      0.593884
O       9.72570     15.33053      7.09603        -0.522475     -0.278883     -0.184575
O       9.63471      3.76691     11.53083        -0.274249      0.820335      0.080790
O       9.47612      0.04182     11.37812         0.930028     -1.823142      0.298427
O       9.73277      7.73972      2.70746        -1.071738     -1.252557     -0.056581
O       9.61501      7.65466     15.87803         0.197140     -0.026729     -0.287738
O       9.60656      7.74507      6.86996        -0.071157     -0.214216      0.739692
O       9.49332      7.70039     11.37004         0.704915      0.575156      0.042879
O       9.63977     11.53779      2.58843         0.061224     -0.019067      0.632170
O       9.59363     11.47732     15.85545        -0.226580     -0.736671      0.165849
O       9.71464     11.46769      6.97836        -0.322556      0.907639      0.023784
O       9.55282     11.53783     11.45535         0.595196     -0.680327     -0.105061
