  # total energy = -7863.78608382 
CRSYTAL
PRIMVEC
    15.010000000000000    0.0000000000000000    0.0000000000000000
     0.0000000000000000   15.010000000000000    0.0000000000000000
     0.0000000000000000    0.0000000000000000    16.400000000000000
PRESSURE
16.9419 16.8136 7.71575 0.020112 -0.170535 0.026278
PRIMCOORD
320 1
Pb       3.67027      3.57819      4.13780        -0.016600      0.432977     -0.572417
Pb       3.70646      3.76273     16.31737         0.180911      0.388992      0.147323
Pb       3.81367     14.92650      4.19451        -0.050841     -0.099209     -1.007697
Pb       3.81870      0.06663     16.35213         0.102173     -0.196347      0.135038
Pb      14.97182      3.79457      4.25734         0.496780     -0.513296     -0.971644
Pb      14.88900      3.78824      0.05936         0.508860      0.124550     -0.170612
Pb      14.92797     15.00239      4.30323         0.204801     -0.055149     -1.323133
Pb       0.05619      0.04034     16.26799        -0.762457     -0.161589      0.279377
Pb       3.74503      3.72209      8.11930         0.064709      0.097932      0.858211
Pb       3.83914     14.99510      8.30865        -0.524535     -0.109047      0.490564
Pb       0.07606      3.72253      8.09430         0.004721      0.398912     -0.003686
Pb       0.15677     14.94598      8.27130        -0.282869     -0.153687     -0.277759
Pb       4.02048      3.71229     12.35309        -0.705685      0.164893     -0.192198
Pb       3.71271     15.00595     12.33986        -0.361046     -0.185291     -0.324881
Pb       0.04523      3.81436     12.27737         0.322704      0.722761      0.048711
Pb      14.96824     14.98600     12.23053         0.690681     -0.334865      0.491785
Pb       3.63316      7.65361      4.23777         0.600516     -0.251562     -1.252160
Pb       3.76788      7.54518     16.38876        -0.592332     -0.153335      0.185513
Pb      14.86767      7.56796      4.12578         0.281589     -0.578031     -0.516416
Pb      14.91785      7.46598      0.03697         0.371651      0.017588     -0.175776
Pb       3.69369      7.52714      8.30255         0.650079     -0.245726     -0.020466
Pb       0.02746      7.48380      8.08085        -0.479308      0.004708      0.834258
Pb       3.73446      7.29914     12.40426        -0.311877      0.502754     -0.227900
Pb       0.01845      7.49228     12.23377        -0.248009     -0.889419      0.445606
Pb       3.58353     11.22215      4.04986         0.604331     -0.152129     -0.062711
Pb       3.67468     11.32239      0.07078         0.256109     -0.790403     -0.283631
Pb      14.85665     11.17707      4.18299        -0.057267      0.875434     -0.883651
Pb      14.94781     11.30683      0.03549        -0.322645     -0.326697      0.013392
Pb       3.52713     11.19932      8.26101         0.555461     -0.056095     -0.208487
Pb      14.98280     11.15621      8.11952        -0.210093      0.213608      0.275127
Pb       3.68147     11.09733     12.48285        -0.114492      0.280349     -0.784486
Pb      14.96131     11.17895     12.31584         0.637701      0.396132      0.071192
Pb       7.45379      3.85838      4.27628         0.038569     -0.516460     -0.611193
Pb       7.51175      3.72402      0.18871         0.450389     -0.099927     -0.270051
Pb       7.53216      0.04552      4.27033        -0.529408      0.048222     -0.694812
Pb       7.61305      0.03513      0.00595        -0.272320     -0.150262      0.122500
Pb       7.61588      3.78709      8.16595        -0.708998     -0.413380      0.539224
Pb       7.43623     14.90686      8.31711         0.193322      0.557329      0.028983
Pb       7.58093      3.68628     12.39359         0.415427      0.469640     -0.176877
Pb       7.52473      0.00440     12.26643         0.133659     -0.115753      0.190966
Pb       7.35106      7.46746      4.20210        -0.445029     -0.002257     -0.392866
Pb       7.49346      7.38770      0.09238         0.476774      0.773730      0.468696
Pb       7.51197      7.43220      8.09754         0.114473     -0.203721      0.340427
Pb       7.58054      7.52847     12.34942         0.172346     -0.136635     -0.303496
Pb       7.20545     11.20296      4.20084         0.251250      0.574042     -0.388990
Pb       7.37492     11.30231      0.05086         0.849235     -0.072881     -0.654562
Pb       7.39595     11.10326      8.23418         0.395866      0.197138      0.805763
Pb       7.51543     11.21842     12.45835         0.542828      0.031134     -0.249094
Pb      11.35510      3.67748      4.25704        -0.167160      0.169376     -0.979061
Pb      11.36617      3.82999      0.09567        -1.093084     -0.256450     -0.299640
Pb      11.27049     14.99898      4.21284        -0.001926     -0.193594     -0.399689
Pb      11.38925      0.13050     16.35728        -0.450648     -0.365471      0.001412
Pb      11.45334      3.72656      8.26172        -0.909917     -0.149255      0.259320
Pb      11.31041     14.89753      8.20748        -0.516487      0.622890      0.694538
Pb      11.31474      3.73995     12.21650        -0.738839      0.214709      0.433329
Pb      11.31155     14.86210     12.34492        -0.663861      0.939952     -0.438681
Pb      11.19075      7.51195      4.15711        -0.324881      0.066078     -0.872814
Pb      11.23907      7.42116      0.12890        -0.651348      0.601762      0.514417
Pb      11.22909      7.52072      8.10971         0.011569      0.168033      0.560831
Pb      11.25059      7.44287     12.39614        -0.032758     -0.077330     -0.694241
Pb      11.02920     11.30410      4.19573         0.759006      0.358489     -0.874716
Pb      11.13082     11.33255      0.00928        -0.130524     -0.095802      0.744133
Pb      11.13818     11.24349      8.21798         0.419417     -0.017657      0.051681
Pb      11.25734     11.12503     12.43443        -0.724758      0.229819     -0.763216
Ti       1.81417      1.91944      1.95180         0.928364     -0.815264      1.433353
Ti       1.92753      1.93941     14.36233        -1.446424     -1.020368     -0.761520
Ti       1.83695     13.09214      2.03391        -0.207572      1.579755      0.477543
Ti       1.86007     13.13442     14.51509        -0.102884      0.189780     -2.260218
Ti      13.14823      1.78619      2.13687         1.015020      1.302996      0.087167
Ti      13.17706      1.97105     14.22032        -1.088044     -0.499228      1.090377
Ti      13.11015     13.10424      2.01298        -0.235054     -0.377511      0.118232
Ti      13.08020     13.11707     14.29871         1.220104      0.079809      3.088091
Ti       1.89382      1.80642      6.20534         0.156769      1.228423     -0.719051
Ti       1.88175     13.16003      6.08505        -0.256573     -1.500990      0.525748
Ti      13.11170      1.87760      6.26653         1.058534      0.036434     -0.378296
Ti      13.06785     13.17161      6.28382         0.656808     -1.452695     -1.628619
Ti       1.76279      1.86805     10.21785         3.124539      0.094633      0.700866
Ti       1.90400     13.06827     10.25081        -0.527148     -0.137392      0.895132
Ti      13.13478      1.87167     10.24460        -1.423832      0.436028     -0.529159
Ti      13.14634     13.08552     10.21968         0.136902     -0.357297     -0.013625
Ti       1.88735      5.62622      2.12963        -0.844118     -0.041233     -0.849817
Ti       1.85663      5.66694     14.46430        -0.858465     -0.238225     -0.550541
Ti      13.11479      5.59851      2.07986         0.442962     -0.359807      0.736426
Ti      13.08362      5.67596     14.37698         0.551289     -0.454687     -0.692430
Ti       1.89955      5.67810      6.09289        -1.102675     -0.430287      0.598692
Ti      13.09590      5.61853      6.13211         1.139997      0.445500      0.980337
Ti       1.93750      5.60833     10.16181        -0.530332      0.504029      1.381037
Ti      13.09754      5.64189     10.17902         0.942408      0.447422      0.369436
Ti       1.69671      9.32608      1.98648         0.866601     -0.646469      0.040363
Ti       1.75694      9.37731     14.36399         0.407911     -0.750058      0.337617
Ti      12.93918      9.35554      1.96705         0.196231      0.764366      1.309826
Ti      13.02609      9.40997     14.39799         1.074253     -1.886016      0.318588
Ti       1.82344      9.37738      6.19897         0.195493      0.945766     -0.681787
Ti      13.03778      9.40751      6.10220        -0.388347      0.308643      0.411954
Ti       1.87306      9.29757     10.31511        -0.074335      0.574547     -0.001248
Ti      13.12624      9.35244     10.29399         0.226879     -0.671342     -0.310466
Ti       5.65766      1.87504      2.10530        -0.288730     -0.842114      0.437729
Ti       5.75228      1.81479     14.43755        -0.586461      0.264439      0.394512
Ti       5.57949     13.14970      2.02228        -0.256530      0.448147      0.852287
Ti       5.62914     13.04379     14.36026         0.715675      0.921016      0.678975
Ti       5.57354      1.81704      6.23612         1.047615     -0.397189      0.013653
Ti       5.57531     13.01930      6.32064        -0.304114      0.965216     -1.313313
Ti       5.59922      1.84510     10.31728        -0.007928     -0.052398     -1.015021
Ti       5.63873     13.03122     10.34568        -0.380594     -0.211359     -0.318585
Ti       5.56700      5.56829      2.07895        -0.363555      0.459280      0.843270
Ti       5.77003      5.63813     14.41725        -1.504560     -1.022751      0.658276
Ti       5.51366      5.52846      6.18769         0.931225      1.601531     -0.303323
Ti       5.65606      5.63304     10.23327         0.426219     -0.411938     -0.799890
Ti       5.51690      9.37781      2.06895        -0.815487     -0.736976      0.748553
Ti       5.64064      9.30598     14.39650        -0.422564      0.306391     -0.414612
Ti       5.57976      9.33021      6.25741        -1.295049     -0.336808     -1.072585
Ti       5.64042      9.26425     10.39532        -0.274414      0.612877      0.004829
Ti       9.42810      1.87168      2.15594        -1.081968      0.376452     -0.702812
Ti       9.43153      1.95644     14.42197         0.091859     -0.155986     -0.670972
Ti       9.30056     13.16633      2.19957         1.042596     -0.204677     -1.053418
Ti       9.44352     13.28007     14.37720        -1.939351     -2.237952      0.229262
Ti       9.36937      1.88755      6.23215        -0.629916     -0.102744     -0.050530
Ti       9.29890     13.21382      6.24380        -0.361670     -0.716216     -0.637025
Ti       9.34572      1.85506     10.27728         0.737196      0.443137     -0.322097
Ti       9.37231     13.09752     10.23775        -0.253306     -0.081487      0.492348
Ti       9.30800      5.63218      2.19581         1.068352      0.225390     -0.907685
Ti       9.39754      5.75637     14.45636         0.547519     -1.813378     -0.254034
Ti       9.42033      5.60942      6.12505        -0.517535      0.067934      0.369469
Ti       9.39170      5.57535     10.22998        -0.371058      0.750816     -0.131127
Ti       9.18404      9.46164      2.18546         1.358025     -0.873583     -1.533445
Ti       9.41733      9.41691     14.45825        -2.014052      1.014293      0.342066
Ti       9.29475      9.47109      6.09761        -0.183830     -1.127637      1.571869
Ti       9.41753      9.35334     10.12936        -0.911430     -0.569173     -0.179170
O       1.66889      1.89076      0.15123         0.716177      0.341692     -0.630145
O       1.64365      1.72661     12.51780         0.782441      0.519395      0.076232
O       1.81962     12.99772      0.12291         0.448360      0.374802      1.349037
O       1.78724     13.15642     12.63275         0.108967      0.080360     -0.187609
O      13.14243      1.90420      0.26892        -0.223151     -0.371217      0.451883
O      13.12130      2.02053     12.42558         0.484718     -0.412717     -0.536386
O      13.01199     13.14629      0.17157         0.444185      0.182798      0.836999
O      13.09886     13.03064     12.57320        -0.007850     -0.100013     -2.642895
O       1.87353      1.82862      4.38692         0.469433     -0.228582      0.202567
O       1.88058     13.06040      4.26019         0.050116      0.451830      0.428479
O      13.19634      1.90148      4.39164        -0.041388     -0.286941      0.582816
O      13.06670     13.09831      4.40112         0.013236      0.025532      0.381245
O       1.90248      1.73370      8.39743         0.138574      0.773430      0.194476
O       1.84234     13.07205      8.41998         0.059433     -0.151980      0.182013
O      13.08607      1.84454      8.35603         0.208053     -0.016371      0.705032
O      13.15963     13.11441      8.35684         0.001959     -0.056182      1.261063
O       1.80268      5.53764      0.24216        -0.027544     -0.224508      0.197555
O       1.73422      5.74203     12.59015         0.733250     -0.626877      0.372588
O      13.21219      5.70689      0.22736        -0.589978     -0.533489      0.210911
O      13.02265      5.60218     12.52628         0.069327     -0.297815     -0.177013
O       1.75840      5.68742      4.30218         0.551302      0.306884     -0.044139
O      13.07143      5.58611      4.33001        -0.105242      0.150021     -0.244619
O       1.81874      5.79910      8.39535         0.519357     -0.595947     -0.416999
O      12.97220      5.63434      8.32583         0.858238      0.340505      0.946415
O       1.78507      9.34273      0.16863         0.206721      0.514004      0.229989
O       1.83374      9.23596     12.49105        -0.182198      0.641389      1.054446
O      12.99989      9.20431      0.18126         0.353993      0.469548      0.278991
O      13.07832      9.35162     12.55542        -0.327405      0.379705     -0.398101
O       1.73938      9.27255      4.32074        -0.219739      0.219527      0.471783
O      13.06413      9.44890      4.24988        -0.089727     -0.305821      1.074240
O       1.97736      9.30952      8.39982        -0.610710      0.397432      0.511578
O      13.17883      9.33543      8.50667        -0.511716      0.139711     -0.924306
O       5.72398      1.73548      0.32070        -0.466823      0.501253     -1.605206
O       5.79551      1.84169     12.61414        -0.425705      0.108850     -0.949505
O       5.48873     13.12729      0.21635         0.159409     -0.166180     -0.071169
O       5.77064     12.95488     12.57349        -0.531186      0.612624     -0.976255
O       5.65257      1.85154      4.38187        -0.427989     -0.106373     -0.144898
O       5.54213     13.05759      4.42497         0.113937      0.253257      0.270622
O       5.49274      1.80021      8.42461         0.281330     -0.054373      0.933196
O       5.69015     13.14844      8.39923        -0.406908     -0.460788      0.723213
O       5.69084      5.59708      0.24369        -0.229544     -0.282451      0.349955
O       5.66649      5.67321     12.62280        -0.383436     -0.259241     -0.443736
O       5.57695      5.51389      4.35295        -0.062743     -0.061592      0.061586
O       5.60521      5.67616      8.34519         0.291054     -0.142842      1.240629
O       5.49710      9.30736      0.26787         0.394508      0.497745     -0.291165
O       5.62649      9.24533     12.47722         0.252269      0.294622      1.187053
O       5.56852      9.42014      4.31367         0.029341     -0.311744      1.412498
O       5.57820      9.26864      8.52458         0.080062      0.434336     -0.772786
O       9.39662      1.85956      0.23290         0.417658      0.218543      0.994097
O       9.19392      1.85477     12.55658         0.316017     -0.104599     -0.495724
O       9.40533     13.03950      0.32748        -0.231293      0.405349      0.764735
O       9.36358     13.07605     12.57031         0.227612      0.507425     -0.984006
O       9.26807      1.87008      4.35093         0.294174     -0.065785      0.620482
O       9.47190     13.17561      4.35349        -0.412069      0.729935      0.690887
O       9.37640      1.97446      8.42115        -0.093478     -0.183363     -0.177137
O       9.36999     13.13761      8.37507        -0.135766     -0.307217      0.649543
O       9.32700      5.61127      0.29688        -0.315615      0.133853     -0.249365
O       9.50368      5.61738     12.63380        -0.244410      0.489140     -0.292723
O       9.42401      5.57123      4.27325         0.301649      0.375414      0.308462
O       9.25355      5.46869      8.38375         0.696269      0.414844      0.267491
O       9.32866      9.41272      0.29049        -0.565983      0.451011      0.646782
O       9.39424      9.20906     12.62542         0.244712      0.850485     -0.602698
O       9.19349      9.23213      4.33775         0.536050      0.281091     -0.735435
O       9.33593      9.38925      8.21711        -0.261582      0.030542      2.539290
O       3.78750      2.32833      2.17756        -0.676894     -0.853422      0.179275
O       3.76201      1.74093     14.53899         0.091810     -0.277228      0.153655
O       3.71925     12.88357      2.29952        -1.037125     -0.179086     -0.179748
O       3.78544     13.45288     14.50563        -0.703661     -0.843918      0.371301
O       0.07164      1.62615      2.42571        -1.751199     -0.546537     -0.214523
O      14.94582      2.24526     14.57119         0.298877     -0.822086     -0.151334
O       0.00896     13.30121      2.37824        -0.158676      0.555449     -0.202061
O      14.94923     12.92520     14.73240         0.051684      0.121851     -0.615325
O       3.77711      2.13663      6.48093        -1.385004     -0.248670     -0.477489
O       3.74269     12.72590      6.36237        -0.686439      0.600134      0.332699
O       0.07798      1.86979      6.44857        -1.341384     -0.846512      0.291091
O      15.00793     13.18034      6.27107         0.133545      0.282712      0.556688
O       3.75596      1.87114     10.67245        -0.269076      0.342508      0.094899
O       3.73423     12.80776     10.52621         0.908834      0.288613      0.171880
O       0.00827      1.71566     10.34954        -1.422912     -0.501031      0.363302
O       0.01200     13.26655     10.50931        -0.816290      0.391899     -0.076180
O       3.71285      5.31669      2.37173         0.752763     -0.417940     -0.234985
O       3.67505      5.80467     14.70881         1.539819     -0.141508     -0.411532
O      14.96589      5.82634      2.35343         0.125392      0.744334      0.143558
O      14.89646      5.41373     14.56737         1.196598     -0.317603      0.287688
O       3.67399      5.40239      6.49451         0.689647      0.355784     -0.364474
O       0.01347      5.73607      6.46140        -0.392438      0.443685     -0.260156
O       3.80606      5.45826     10.54530        -1.052622     -0.476171      0.252506
O       0.06895      5.80228     10.47660        -1.531016     -0.051468     -0.160726
O       3.62259      9.45280      2.35303         0.254710      0.509480     -0.093269
O       3.75672      9.09814     14.55173        -0.495530      0.536424     -0.124085
O      14.88542      8.91213      2.27418        -0.211862      0.662828     -0.290803
O      14.91719      9.64975     14.66230         0.517189     -0.446487     -0.430552
O       3.70598      9.70285      6.27269         0.794277     -0.407812      0.409386
O      14.92117      9.25220      6.48041         0.197972     -0.001906     -0.585824
O       3.70517      9.50519     10.58770         1.165519      0.645511     -0.162736
O      15.00109      8.98514     10.49524        -0.082517      0.911534     -0.305142
O       7.53281      1.45577      2.24120         0.629940      0.126500      0.483521
O       7.53981      1.95382     14.69693        -0.078897      0.699148      0.304011
O       7.43403     13.29493      2.35011         0.440620      0.287515     -0.056243
O       7.49577     12.93410     14.70237         0.205252      0.019385      0.108015
O       7.42824      1.54027      6.41170         0.744262      0.248767      0.211597
O       7.44332     13.44567      6.39150         0.435631      0.095094     -0.073745
O       7.49208      1.61499     10.40232        -0.111956      0.373134      0.345051
O       7.54101     13.27386     10.44247         0.376953      0.157966      0.120288
O       7.46507      5.83255      2.35302        -0.190494      0.553055      0.202625
O       7.56679      5.36701     14.59744        -0.405651      0.088713      0.297245
O       7.53094      5.80142      6.30591        -1.049468     -0.073230      0.006030
O       7.49329      5.82839     10.63663         0.030475     -0.207094     -0.523701
O       7.36296      9.10808      2.38283         0.553506      0.419060     -0.332217
O       7.46168      9.67180     14.65658         0.183250     -0.328588      0.054731
O       7.44163      9.11819      6.43046         0.173671     -0.125089     -0.162102
O       7.54070      9.02219     10.48729        -0.314107      0.101763     -0.109873
O      11.29050      2.09449      2.48183        -0.109376      0.321918     -0.479920
O      11.22688      1.56471     14.43090         1.504568      0.102373      0.324123
O      11.32319     12.73034      2.30957        -0.975073      0.644613      0.321368
O      11.25883     13.42554     14.60098         0.289833     -0.319792     -0.029563
O      11.26726      2.10978      6.31019        -0.625736     -0.062575      0.147663
O      11.20968     13.05597      6.45614        -0.041344     -0.624174      0.277905
O      11.20642      2.03674     10.41838         1.281373      0.300308      0.349315
O      11.26456     12.92200     10.48519         0.603640     -0.208717      0.123185
O      11.25797      5.37231      2.15332        -0.600861     -0.597102      0.640729
O      11.23787      5.89251     14.77678        -0.318587     -0.255596     -0.196387
O      11.32716      5.23917      6.40220        -1.988694      0.823342     -0.392199
O      11.25556      5.38047     10.47851        -0.054118     -0.065198     -0.295420
O      11.14663      9.80779      2.31813         0.808723     -0.898576      0.071352
O      11.15876      9.18621     14.72971         1.467374     -0.315420     -0.334643
O      11.11753      9.64582      6.57746         1.754439     -1.046951     -1.409203
O      11.24104      9.57298     10.41043        -0.070786      0.241573      0.294765
O       1.55617      3.73049      2.35505         0.187037      0.322284      0.203833
O       2.04781      3.73335     14.52691         0.044931      0.699195      0.042833
O       2.16187      0.03849      2.19003        -0.011449     -1.001200     -0.088053
O       1.70604      0.00125     14.63640        -0.419425      0.554834      0.226983
O      13.45845      3.71111      2.43551        -0.903291      0.047987     -0.681878
O      12.79534      3.78079     14.63980         0.067407     -0.755124     -0.233096
O      12.86926     15.00269      2.44575         0.287895     -0.688381     -0.389970
O      13.28124     14.98320     14.48436         0.693154      1.300556      0.002685
O       1.75871      3.79546      6.35596        -0.040416     -0.300315      0.478258
O       1.92454     14.97985      6.55819         0.756972     -0.764953     -0.680280
O      13.34657      3.74791      6.47182        -0.120839      0.021386     -0.231957
O      13.02344      0.00779      6.49258         0.213808      0.202239     -0.328529
O       1.71606      3.75336     10.36120         0.226170     -0.642879      0.335607
O       2.09820     14.95664     10.41274        -0.634189     -0.071240      0.434555
O      13.25881      3.74510     10.37088         0.456348      0.061291      0.204764
O      12.98500      0.03306     10.55710         0.107206     -1.449772     -0.130507
O       2.12213      7.46331      2.16084        -0.312116      0.015170      0.527690
O       1.67825      7.51895     14.74202        -0.413218     -0.024237     -0.379723
O      12.67819      7.43126      2.33783         0.612808      1.303408      0.154907
O      13.28611      7.50303     14.54056        -0.050899      0.429416      0.155414
O       2.14181      7.60220      6.48048        -0.507545     -1.733014     -0.545893
O      12.92865      7.53622      6.37646        -0.159953     -0.382046     -0.240852
O       2.08561      7.49911     10.56298         0.337912     -1.136875     -0.297502
O      12.84131      7.46214     10.53374         0.177109     -0.102477     -0.101002
O       1.53276     11.17951      2.22289         0.346746      0.510315      0.268136
O       2.06187     11.22270     14.54230         0.477274      0.054674      0.139555
O      13.44922     11.22554      2.16872         0.143868     -0.627329      0.182722
O      12.82211     11.17746     14.62638        -0.151647      2.122897     -0.193066
O       1.74604     11.23579      6.51258        -0.777231      0.425823     -0.298887
O      13.25640     11.23358      6.44156        -0.286880     -0.058234      0.068389
O       1.64644     11.19679     10.62332        -0.065055     -0.087647     -0.365994
O      13.44258     11.20002     10.52180        -0.580556      1.016515     -0.174103
O       6.04832      3.64765      2.32549        -0.296749      1.746530     -0.130525
O       5.45281      3.76009     14.63667         0.060708     -0.287333     -0.058054
O       5.25745     14.98591      2.32345         0.148689     -0.217851      0.334328
O       5.84101     14.98660     14.66108        -0.232664     -0.216690     -0.157767
O       5.78098      3.77588      6.49684         0.169092     -1.817672      0.035455
O       5.12699     14.97938      6.43363         1.128399     -0.255822     -0.607366
O       5.68010      3.70652     10.55158         0.612657      0.144158      0.228484
O       5.62132     14.90552     10.55129        -1.020579      0.435203      0.295889
O       5.37686      7.41948      2.39937        -0.075632      0.266815     -0.191502
O       5.85581      7.48468     14.80352        -0.009895     -0.144057     -0.673570
O       5.28728      7.46332      6.29720         0.438050      0.682996      0.313827
O       5.29079      7.40885     10.54493         0.684773      1.056450     -0.098615
O       5.62804     11.24996      2.37229         0.618096     -0.275609     -0.454483
O       5.46605     11.20779     14.65919        -0.861405     -0.210837      0.166594
O       5.99793     11.19876      6.43392        -0.693637      0.063414      0.015382
O       5.97407     11.22724     10.62581        -0.593305     -1.034101     -0.705956
O       9.00858      3.79915      2.30507         0.558710     -1.615854      0.083405
O       9.65941      3.72628     14.55972        -0.116487      1.189490      0.484084
O       9.78030      0.03015      2.35621        -0.543198     -1.159476     -0.031524
O       9.21313      0.01501     14.65787        -0.325024      0.465125      0.138758
O       9.04205      3.74984      6.39035         0.633066     -0.939813     -0.411770
O       9.61205      0.00727      6.52038        -0.294273      0.846022     -0.332592
O       9.19272      3.79723     10.63414        -0.338782     -1.586352     -0.125297
O       9.66965      0.01131     10.48975        -0.652287     -1.141615     -0.009134
O       9.69203      7.60141      2.27736        -0.508798     -0.836959      0.557991
O       9.08885      7.56674     14.57908        -0.253661     -0.743510      0.753471
O       9.49211      7.41317      6.43998         0.671740      0.907258     -0.247266
O       9.63225      7.43018     10.32510         0.083562      0.938236      0.428632
O       9.15937     11.30020      2.60923        -0.642708     -0.147503     -0.444933
O       9.58127     11.36968     14.61330         0.167774     -1.552855     -0.219598
O       9.06052     11.27238      6.35044         0.068181      0.676608     -0.091461
O       9.13936     11.16177     10.52449         0.361901      0.741563     -0.245984
