  # total energy = -7867.29455411 
CRSYTAL
PRIMVEC
    15.010000000000000    0.0000000000000000    0.0000000000000000
     0.0000000000000000   15.010000000000000    0.0000000000000000
     0.0000000000000000    0.0000000000000000    16.400000000000000
PRESSURE
19.1322 19.2155 10.6577 0.008217 -0.290198 -0.037365
PRIMCOORD
320 1
Pb       3.86038      3.84139      4.20797        -0.330769     -0.530570     -0.209830
Pb       3.74088      3.71833      0.06062         0.250677     -0.121930     -0.146088
Pb       3.67384      0.04447      4.08348        -0.279556     -0.172001      0.623569
Pb       3.68068     14.91634     16.39771         0.347997      0.354743      0.136308
Pb      14.98207      3.67865      4.04697        -0.279261      0.024174      0.474647
Pb       0.04166      3.65373     16.34870        -0.378365      0.463736      0.320180
Pb       0.01296     14.99408      4.06733         0.000809      0.176809      0.479542
Pb      14.95134     14.92178      0.08988        -0.058174     -0.248790      0.211077
Pb       3.73297      3.78875      8.22286         0.134362     -0.233862      0.075315
Pb       3.65521     14.92616      8.11390         0.084939      0.348031      0.308779
Pb      14.94861      3.78736      8.27894         0.303566      0.203720      0.370292
Pb      14.92662     14.98623      8.15675         0.771169     -0.182935      0.078362
Pb       3.57603      3.75758     12.30182         0.702511      0.018449     -0.134466
Pb       3.71322     14.96325     12.35857         0.226104     -0.016572     -0.168306
Pb      14.99466      3.68415     12.38955        -0.698430      0.029099     -0.375026
Pb      15.00527     14.95543     12.38509        -0.425934      0.679378      0.121136
Pb       3.79201      7.39675      4.07976        -0.450137      0.361411      0.032383
Pb       3.72209      7.39241      0.06125         0.087663      0.375217     -0.021044
Pb      14.98014      7.45707      4.12427        -0.152722      0.395109      0.469155
Pb      14.98808      7.51991     16.37568         0.002240     -0.450502      0.289087
Pb       3.76261      7.48506      8.03927        -0.445733     -0.692050      1.624502
Pb      14.95482      7.49049      8.28691         0.220899      0.045633      0.558919
Pb       3.73759      7.62325     12.26694        -0.291257     -0.547946      0.501077
Pb      14.98936      7.43027     12.38403         0.177947      0.225008     -0.486914
Pb       3.74284     11.29481      4.26289        -0.093310     -0.445206     -0.544756
Pb       3.76699     11.18223     16.29248        -0.176144      0.228064      0.894036
Pb       0.07453     11.25849      4.07440         0.067365     -0.151349      0.349951
Pb      14.97127     11.26789      0.00646         0.101306      0.339584      0.434616
Pb       3.85758     11.24763      8.14054        -0.624077      0.166816      0.641592
Pb      14.98380     11.25958      8.24824        -0.118290     -0.273153      0.444628
Pb       3.76457     11.34420     12.26714         0.066719     -0.176600      0.360327
Pb       0.02266     11.27436     12.33955        -0.265749     -0.330351     -0.073030
Pb       7.49902      3.61693      4.06277         0.075677      0.891745      0.195812
Pb       7.48447      3.72642     16.32395         0.195119      0.234908      0.518490
Pb       7.45593     14.93244      4.08824         0.277620     -0.194713     -0.105333
Pb       7.37424      0.01270      0.01066         0.535628      0.038414      0.158804
Pb       7.43991      3.70963      8.15892        -0.033278     -0.274359      0.296363
Pb       7.56182      0.08448      8.13572        -0.211641     -0.245524      0.542543
Pb       7.44383      3.75359     12.25878        -0.247023     -0.257751      0.160315
Pb       7.50588     14.89260     12.39357        -0.416531      0.921002     -0.307983
Pb       7.47630      7.53829      4.03525         0.150438     -0.239048      0.106889
Pb       7.48155      7.55918     16.38389        -0.019918     -0.507837      0.396304
Pb       7.42710      7.52261      8.27251         0.409891      0.040156      0.719229
Pb       7.46435      7.47735     12.34481         0.292765     -0.103447     -0.562917
Pb       7.67078     11.29771      4.12098        -0.786904     -0.391167      0.322839
Pb       7.55059     11.21625     16.37909        -0.070848      0.126470      0.659704
Pb       7.53379     11.30289      8.12740         0.170390      0.193740      0.501693
Pb       7.48348     11.18810     12.29110        -0.037951     -0.166523      0.128631
Pb      11.14787      3.75857      4.05065        -0.049070      0.135612      0.432260
Pb      11.21713      3.63181     16.34462        -0.403789      0.729368      0.570005
Pb      11.25598      0.00800      4.09167         0.046928      0.155853     -0.099912
Pb      11.12653     14.90060      0.09245         0.073474     -0.041278     -0.092546
Pb      11.14028      3.74015      8.11298         0.312623      0.398125      0.397919
Pb      11.17736      0.05896      8.17926        -0.174480     -0.858191      0.279611
Pb      11.25270      3.69927     12.38398         0.381418      0.256996     -0.231908
Pb      11.23014      0.09082     12.34585         0.111655     -0.039583      0.213817
Pb      11.33850      7.46695      4.12836        -0.607644     -0.011860      0.652747
Pb      11.25882      7.53037      0.00552         0.084912     -0.376093     -0.156364
Pb      11.20678      7.47725      8.20727         0.204286      0.657394      0.800870
Pb      11.35959      7.50069     12.30901        -0.637927      0.070269     -0.430175
Pb      11.43946     11.15571      4.10707        -0.887980      0.071771      0.788361
Pb      11.37746     11.13463      0.00192        -0.726039      0.886423      0.144527
Pb      11.24683     11.18215      8.22219         0.175105      0.323437      0.556543
Pb      11.27136     11.29612     12.27252         0.038947     -0.690538      0.285141
Ti       1.89017      1.90366      2.14429        -0.398377     -1.142715      1.008164
Ti       1.85635      1.80010     14.46930         0.405222      0.340131     -0.285529
Ti       1.90958     13.14375      2.06447        -0.802015     -0.513995      1.096242
Ti       1.82816     13.09321     14.42121        -0.133976      0.685183      0.430643
Ti      13.07769      1.89744      2.13317        -0.336087     -0.670640      1.100237
Ti      13.08356      1.74355     14.58612         0.186248      0.250389     -2.039402
Ti      13.13561     13.12997      2.23107         0.930634      0.588062     -1.799429
Ti      13.05760     13.11231     14.41871        -0.650568     -0.012772      0.355620
Ti       1.79030      1.92512      6.30269         0.376195     -0.954040     -1.064288
Ti       1.88752     13.03946      6.26469        -0.171043      0.921128     -0.835238
Ti      13.14037      1.90925      6.21809        -0.057706      0.074063     -0.525959
Ti      13.20503     13.10049      6.20896        -0.465354      0.543548      0.419244
Ti       1.82080      1.84357     10.40176        -0.604215      0.478379     -0.881627
Ti       1.77110     13.11400     10.40568         1.392156      0.876322     -0.872682
Ti      13.07394      1.78272     10.21436         0.870577      2.129449      3.192253
Ti      13.06555     13.19964     10.38935         0.093670     -1.975108     -1.173042
Ti       1.76194      5.58251      2.14047         0.449679      0.965490      0.947277
Ti       1.91817      5.63455     14.42955        -1.339676      0.150051      0.323447
Ti      13.05916      5.57558      2.17720        -0.325716      1.020191     -0.708738
Ti      13.12416      5.54016     14.44401         0.175221      0.424346     -0.350784
Ti       1.79619      5.60597      6.22450         0.639066      0.074805     -0.346944
Ti      13.16434      5.64960      6.25083        -1.806575     -0.917989     -0.197084
Ti       1.77162      5.71593     10.36950         0.324912     -0.573686     -0.836055
Ti      13.07384      5.62435     10.36085        -0.529831     -0.746906     -0.427767
Ti       1.86016      9.35643      2.18994         0.098036      0.229485     -0.717367
Ti       1.86384      9.39465     14.49161         0.343122     -0.730427     -1.115756
Ti      13.12120      9.34383      2.16373         0.246771     -1.192140      0.204133
Ti      13.18345      9.39207     14.36488        -1.126669     -0.243893      0.075398
Ti       1.80492      9.31740      6.25098        -0.132629     -0.122601     -0.356819
Ti      13.15314      9.38037      6.32792        -0.762432     -0.541943      0.136578
Ti       1.86333      9.45513     10.33511        -0.351292     -0.923911     -0.231267
Ti      13.19397      9.39292     10.37853        -0.886343     -0.120260     -1.155612
Ti       5.57589      1.79867      2.13014        -1.042752      0.503924      0.719299
Ti       5.57351      1.87622     14.40966         0.198562     -0.284590      0.268541
Ti       5.57481     13.03058      2.19465         0.482998      0.080687      0.428833
Ti       5.66825     13.13624     14.53346        -1.484492     -0.091985     -0.603690
Ti       5.59366      1.78382      6.17703        -0.180672      1.515512      0.663515
Ti       5.69006     13.12839      6.15769         0.153924     -0.057597      0.670436
Ti       5.54936      1.81001     10.36114         0.639567      0.379096      0.012873
Ti       5.64339     13.13775     10.34394        -0.998029     -0.064131     -0.621449
Ti       5.62280      5.58280      2.10412         0.641497     -0.426339     -0.604711
Ti       5.64799      5.61254     14.43170        -0.398916      0.721080     -0.485970
Ti       5.70293      5.55795      6.28645        -1.112512     -0.047868     -0.110143
Ti       5.51556      5.61420     10.40096         0.572210     -0.475771     -0.568889
Ti       5.53567      9.37313      2.14797         0.975127     -0.064219      0.359172
Ti       5.58984      9.40370     14.38770         0.721767     -0.577758      0.307857
Ti       5.59020      9.35978      6.26250         0.757136      0.109739     -0.860552
Ti       5.60628      9.35799     10.29360        -0.252798      0.287791      0.252679
Ti       9.28473      1.80196      2.07049         1.138678      0.904435     -0.118972
Ti       9.36628      1.87463     14.38304        -1.180487     -0.329954      1.217858
Ti       9.39811     13.09523      2.10050        -0.532560     -0.457108      0.049507
Ti       9.31052     13.12309     14.38877         1.206066      0.036202      0.876885
Ti       9.43669      1.86982      6.18435        -1.476284      0.630816     -0.553014
Ti       9.50000     13.13419      6.24785        -0.772041     -0.579661     -0.100864
Ti       9.35533      1.92192     10.39843        -0.548438     -0.241076     -0.777206
Ti       9.34004     13.12262     10.45153         0.858410      0.599610     -1.782548
Ti       9.34141      5.66647      2.07758        -0.934936     -1.239372     -0.341562
Ti       9.38743      5.66443     14.34680        -0.149494     -0.753745      0.689117
Ti       9.38092      5.70341      6.29368        -0.480018     -0.952676     -1.193719
Ti       9.32434      5.60532     10.31890        -0.458684      1.251363      0.619177
Ti       9.41623      9.38584      2.17674        -0.763763     -0.070249     -0.030637
Ti       9.36694      9.39637     14.44556         0.937980      0.167467     -0.297907
Ti       9.34695      9.36929      6.21888         1.015282      0.041713      0.445232
Ti       9.37320      9.41157     10.36882         0.666941     -1.818579      0.036287
O       2.05599      1.82454      0.38391        -0.439824      0.480927     -1.151225
O       1.84194      1.68215     12.66752        -0.069825      0.821106      0.164380
O       1.83233     13.15226      0.28530        -0.004413     -0.216837     -0.486524
O       1.89988     13.08491     12.61823        -0.495521      0.164168     -0.003502
O      12.89881      1.89224      0.38370         0.658635     -0.259680     -2.108597
O      13.13805      1.68415     12.72061        -0.513021      0.386203      1.515208
O      13.31439     13.15891      0.35675        -1.116643     -0.274723      1.093454
O      13.13731     13.03103     12.62636        -0.440610      0.299627     -0.606090
O       1.73844      1.82620      4.44724        -0.206869      0.605744      0.744033
O       1.78446     13.13761      4.46559         0.043951     -0.353378      0.099689
O      13.22146      1.90306      4.43327        -0.385011      0.128434     -0.701681
O      13.23863     13.13382      4.41639        -0.434151     -0.482688     -0.674893
O       1.76506      1.93067      8.58315         0.258138     -0.567220     -0.006825
O       1.76142     13.01469      8.60217         0.538219      0.383914     -1.033877
O      13.18623      1.78076      8.47151        -0.699745      0.075181     -0.202164
O      13.08611     13.13463      8.55601         0.224719      0.531314      0.168034
O       1.70937      5.59361      0.37710         0.236248     -0.031577     -1.195662
O       1.71769      5.68026     12.65895         0.652242      0.052609     -0.642017
O      13.07445      5.65920      0.36903         0.146224     -0.201897     -0.717478
O      13.03191      5.54992     12.58246         0.339299      0.591839      1.113449
O       1.82965      5.67083      4.38171         0.298956     -0.312967      0.644678
O      13.01437      5.59233      4.45570         0.091062      0.140248     -0.263602
O       1.74961      5.66888      8.54172         0.081513     -0.474284      0.204554
O      13.18037      5.54711      8.52431        -0.363794      0.270229      0.203731
O       1.86698      9.38132      0.35380         0.223081     -0.043876     -0.143078
O       1.81245      9.36437     12.66447         0.028693      0.004690      0.406644
O      12.90795      9.36791      0.37397         1.031350     -0.444671     -0.517778
O      13.19365      9.43610     12.57165        -0.171016     -0.161331      0.131969
O       1.81337      9.29342      4.44486         0.243350      0.051079     -0.334111
O      13.09447      9.33740      4.54725         0.106904      0.190965     -1.877635
O       1.82392      9.40372      8.55246        -0.054661      0.190143     -1.148326
O      13.14247      9.37602      8.48915         0.010813     -0.159226      0.205719
O       5.44070      1.85439      0.38642        -0.021872      0.136483     -1.437132
O       5.52010      1.79164     12.66204         0.163486      0.126900     -0.701623
O       5.56510     13.07691      0.42512         0.002670     -0.084387     -1.051008
O       5.61889     13.07903     12.72586         0.296694      0.009741     -0.449203
O       5.61301      1.90467      4.41102         0.195050     -0.193759     -0.882628
O       5.70375     13.09626      4.40009        -0.299339      0.080551     -0.631145
O       5.53513      1.87945      8.55404         0.112396     -0.610168      0.056714
O       5.64337     13.13542      8.53252        -0.142494      0.125372     -0.038704
O       5.76112      5.64523      0.28127        -0.745535     -0.035493     -0.294459
O       5.49506      5.67138     12.61680         0.331533     -0.268287      0.428693
O       5.61257      5.56034      4.47680        -0.276588      0.296203     -0.804785
O       5.58261      5.55074      8.54991         0.276256      0.046199      0.256610
O       5.55200      9.25390      0.34694        -0.278624      0.503091     -0.221014
O       5.54493      9.45452     12.59612         0.346826     -0.169080     -0.323881
O       5.60916      9.40410      4.46825        -0.038556     -0.756915      0.292397
O       5.48566      9.41828      8.50928         0.427874     -0.048784     -0.418849
O       9.41354      1.79736      0.24305        -0.378094      0.234205      0.840029
O       9.33848      1.81559     12.62455         0.070780      0.180407     -1.174711
O       9.29904     13.07775      0.31647         0.097616      0.083320      0.355328
O       9.18213     13.11147     12.59512         0.577407      0.000177     -0.596580
O       9.45289      1.87334      4.37455        -0.599685     -0.732833      0.194873
O       9.40071     13.10796      4.47368         0.226567      0.462620     -0.687342
O       9.32778      1.91316      8.54802         0.396517     -0.228829     -0.224269
O       9.46482     13.09202      8.59405        -0.328330      0.314204     -0.109542
O       9.22268      5.52270      0.28649         0.543759      0.400922      0.056487
O       9.26381      5.61047     12.56031         0.482051      0.346238      0.476196
O       9.38872      5.70497      4.50428        -0.198704      0.125001     -0.492463
O       9.17352      5.53350      8.52242         0.379882      0.102836     -0.515478
O       9.52154      9.44746      0.37702        -0.282903      0.062383     -0.609054
O       9.32208      9.37991     12.65857         0.001820     -0.059469     -0.138661
O       9.40126      9.34607      4.44532        -0.497675     -0.248193     -0.332358
O       9.50482      9.43017      8.59471        -0.565901      0.015805     -1.202826
O       3.71645      1.91941      2.65228        -0.538505      0.197654     -0.627094
O       3.72439      1.85721     14.70006        -0.853005      0.365174      0.354039
O       3.69006     13.02921      2.61040         0.271415      0.534259     -0.509321
O       3.71025     13.06132     14.65433        -0.281055      0.027785      0.442842
O      14.91321      1.91216      2.27115         1.524971      0.076404      0.112423
O      14.98027      1.76980     14.83496        -0.112601      0.032943      0.101888
O       0.01482     13.15324      2.37755        -0.209238     -0.137406      0.279418
O      14.87342     13.22770     14.73164         2.378800      0.099780     -0.248549
O       3.68045      1.78561      6.44057         0.002200     -0.270826      0.353450
O       3.81107     13.21428      6.36908        -0.835325     -0.237036      0.782412
O      14.91848      2.03956      6.67852         1.718272      0.255003     -0.485547
O       0.03796     12.84297      6.54036        -0.861367      0.462326      0.030657
O       3.69713      1.76258     10.63901        -0.730458      0.017889      0.180257
O       3.70042     13.24516     10.57040         0.556851     -0.252105      0.311743
O      14.91060      1.88905     10.85743        -0.358684     -0.125237     -1.209762
O      14.95737     13.04557     10.63714        -0.972914      0.015643      0.325864
O       3.71066      5.58062      2.34659        -0.077024     -0.007934      0.115542
O       3.70245      5.54943     14.81099         1.049933      0.072878      0.133124
O      14.89471      5.77681      2.55249         0.659842     -1.097549     -0.764891
O      15.00744      5.74847     14.71615        -0.858516     -0.233438      0.160033
O       3.74121      5.62886      6.55948        -0.465139      0.442633     -0.468864
O      14.93524      5.44472      6.46939         1.660418     -0.806734      0.137971
O       3.65829      5.60877     10.70735        -0.140371      0.251398     -0.173641
O      14.91764      5.60785     10.66495         0.243366     -0.258364      0.263643
O       3.69242      9.41229      2.54276         0.129221     -0.635856     -0.115914
O       3.76114      9.49382     14.61090        -0.770465      0.121700      0.508481
O      14.96814      9.21661      2.47105        -0.262439      0.514530     -0.302196
O      14.99115      9.39430     14.77750         0.100132     -0.459332      0.144214
O       3.70788      9.12713      6.50866         0.393799      0.786718     -0.490662
O      14.98007      9.60171      6.38263         1.020006     -0.044927      0.856858
O       3.64640      9.19598     10.58371         1.974274      0.747898      0.231516
O       0.01896      9.39016     10.64722        -0.554566      0.363039      0.234233
O       7.40397      1.83853      2.26764         1.201143     -0.267401      0.579274
O       7.43445      1.75062     14.69950         0.354129      0.230988      0.294001
O       7.48699     13.07416      2.51021        -0.255421     -0.055032     -0.381167
O       7.48590     13.18201     14.80330        -0.597911      0.018579      0.143108
O       7.48323      1.93444      6.48343         0.559293     -0.349524      0.060645
O       7.52826     12.98347      6.43035         0.577057      0.330617      0.615584
O       7.48148      1.95771     10.60363        -0.454611      0.189009      0.155631
O       7.52776     13.20105     10.56706        -1.621111     -0.906881      0.352760
O       7.47140      5.59748      2.38818         0.214691      0.049390      0.768259
O       7.51845      5.75676     14.67639        -1.104000     -0.429780     -0.257229
O       7.48157      5.37605      6.38306         0.354978      0.398599      0.705281
O       7.40985      5.48380     10.74321         0.019800      0.427273     -0.517910
O       7.46543      9.46338      2.48092         0.290052     -0.411271     -0.405065
O       7.51491      9.41837     14.81414        -0.914223     -0.369091     -0.370483
O       7.50420      9.51413      6.62121        -0.136486     -0.216010     -0.165867
O       7.45072      9.38405     10.64772        -0.215155      0.423058     -0.182499
O      11.19906      1.78089      2.31815        -0.968976      0.026855      0.734509
O      11.18854      1.94621     14.64515         0.513522     -0.344563      0.122786
O      11.29262     13.26160      2.36182        -1.002378     -0.406754      0.192754
O      11.13579     12.96290     14.75569         1.131433      0.453493     -0.316096
O      11.27582      1.75685      6.49513        -0.608355     -0.625740      0.404657
O      11.32731     13.31994      6.52128         0.399461      0.193010     -0.058332
O      11.25100      1.86994     10.69648         0.154923     -0.777233     -0.286708
O      11.20398     13.00880     10.67344         0.605291      1.066888      0.376776
O      11.11128      5.59641      2.47661         1.585946     -0.124870     -0.219156
O      11.24346      5.56258     14.62517        -0.095594      0.177601      0.356957
O      11.20240      5.77240      6.62223         0.663103     -0.078025      0.041895
O      11.15357      5.78420     10.57807         0.703135      0.011184      0.016042
O      11.25134      9.32034      2.57839        -0.145788      0.473884     -0.286769
O      11.29897      9.51348     14.69817        -0.609200     -0.206125     -0.208337
O      11.27233      9.15171      6.41267        -1.235456     -0.210756      0.799064
O      11.27095      9.28928     10.62615        -0.364535      0.129057      0.559327
O       1.71301      3.71755      2.35887         0.238592      0.807350      0.236327
O       1.72650      3.77285     14.61470         0.215015     -1.288537      0.525372
O       1.80747      0.01120      2.47411         0.562069     -0.251311     -0.480408
O       1.85494     14.97897     14.78854         0.097443     -0.371480     -0.089057
O      13.02174      3.77247      2.45794         0.228427     -0.697041     -0.001036
O      13.10073      3.66043     14.71999         0.553411      0.964167      0.198538
O      13.15438      0.03835      2.49931        -0.127623     -0.928680     -0.140194
O      12.92041     14.91587     14.84624        -0.002787      1.138747      0.028656
O       1.96251      3.76575      6.58653        -0.371559     -0.263524     -0.215641
O       1.76311     14.96080      6.50425        -0.399595      0.322489      0.673694
O      12.85505      3.74459      6.48489         0.461048      0.252937      0.326744
O      13.43806      0.03172      6.34748        -0.622218     -1.537614      0.597326
O       1.74843      3.75851     10.66192         0.421567     -0.425265      0.465499
O       1.69005     15.00610     10.69618         0.238185     -0.352952     -0.339584
O      12.92760      3.76355     10.75382         0.734596     -1.236552     -0.940670
O      13.08204     14.98870     10.78830        -0.024657      0.317451     -0.875851
O       1.86879      7.47512      2.33133         0.314963      0.058421      0.319685
O       1.97725      7.53354     14.75864        -0.363153     -0.270347      0.241885
O      12.94735      7.44576      2.46282         0.369369      0.795796     -0.191003
O      13.05435      7.51900     14.62051         0.013458     -0.174510      0.228213
O       1.66746      7.42420      6.57546         0.120845      0.779073     -0.154735
O      13.42762      7.45730      6.49340        -0.839102      0.779624      0.244250
O       1.71966      7.52937     10.57450         0.101448     -0.160427      0.644956
O      13.14943      7.50600     10.50313         0.048590     -0.299479      0.889953
O       1.73907     11.27932      2.39886         0.256628     -0.682748      0.109198
O       1.75139     11.26359     14.73151        -0.034707      0.126266      0.173902
O      13.04258     11.18913      2.37075         0.488669      1.060587      0.279941
O      13.23218     11.31687     14.74812        -0.299313     -1.979126      0.213898
O       2.01680     11.17931      6.41774         0.579598      0.146419      0.474940
O      12.93661     11.22815      6.51686        -0.011874      1.220070     -0.087736
O       1.90767     11.27677     10.69924         0.023043     -0.246028      0.147777
O      13.05199     11.20676     10.54046         0.172352      1.442214      0.455144
O       5.61776      3.71461      2.34000        -0.277808      0.297641      0.476798
O       5.59841      3.74957     14.65117         0.220314      0.110197      0.384139
O       5.50646     14.95894      2.38255         0.138230     -0.531052      0.463585
O       5.51217     14.99565     14.87445         0.136126     -0.287985     -0.326076
O       5.52511      3.65834      6.53485        -0.367968      0.857805      0.092334
O       5.69699     15.00578      6.42259         0.215727     -1.165712      0.591253
O       5.47459      3.69762     10.71986        -0.053874      0.101365     -0.001041
O       5.64342     14.94937     10.80322         0.126184      0.646162     -0.500374
O       5.68760      7.44638      2.37587        -0.714721      0.827826      0.657135
O       5.51510      7.53931     14.58759         0.086973     -0.357680      0.547026
O       5.79098      7.49410      6.64069        -0.310955     -0.593448     -0.716114
O       5.63587      7.50217     10.57737        -0.055171     -0.444732      0.278064
O       5.46688     11.17467      2.53520         0.580973      1.060514     -0.434275
O       5.60600     11.27619     14.83594         0.596416     -0.450176     -0.146134
O       5.58379     11.23469      6.52219        -0.631076      0.218866      0.088539
O       5.51381     11.22207     10.60019         0.044267      0.909616      0.043714
O       9.29757      3.69894      2.52608         0.055530     -0.259765     -0.856171
O       9.28041      3.74075     14.76412        -0.129725      0.185613     -0.641952
O       9.25157     14.93615      2.41452         0.233370      0.832060      0.156770
O       9.37042     14.97615     14.74325         0.204172      0.362104     -0.246627
O       9.41184      3.72682      6.39317         0.702832      0.033783      0.630856
O       9.30018     14.97893      6.50390        -0.091975      0.892487      0.385178
O       9.51110      3.78930     10.68730        -0.481933     -0.720446      0.056581
O       9.24437      0.07166     10.62702         0.889471     -1.202618      0.161352
O       9.35750      7.52234      2.26366        -0.405950     -0.145054      0.445862
O       9.36427      7.52246     14.72892         0.501610      0.001370      0.041727
O       9.12500      7.50257      6.67101         0.288232      0.503844     -0.206256
O       9.22034      7.53036     10.57288        -0.169464     -0.855415      0.332936
O       9.38036     11.24857      2.54477         0.699826      0.411557     -0.481827
O       9.25159     11.28755     14.70289        -0.180097     -0.980366      0.005601
O       9.55893     11.26200      6.46889        -0.108873     -0.683142      0.351305
O       9.38344     11.21764     10.67030        -0.486801      1.243505      0.378102
