  # total energy = -7861.62544984 
CRSYTAL
PRIMVEC
    15.010000000000000    0.0000000000000000    0.0000000000000000
     0.0000000000000000   15.010000000000000    0.0000000000000000
     0.0000000000000000    0.0000000000000000    16.400000000000000
PRESSURE
16.9619 17.3636 5.58593 0.042759 0.067661 0.092109
PRIMCOORD
320 1
Pb       4.02512      3.67293      4.41429        -0.942785      0.477092     -0.759188
Pb       3.84440      3.79805      0.16920        -0.304574     -0.188651     -0.866064
Pb       3.66283      0.17252      4.16994        -0.207064     -0.801188     -0.724979
Pb       3.77934      0.02078     16.35008        -0.469556     -0.053485      0.229148
Pb      14.94810      3.62998      4.06550        -0.068668      0.081438      0.053022
Pb       0.04759      3.67705     16.36321        -0.383846      0.438238     -0.159915
Pb      15.00175      0.05972      4.23231         0.144550     -0.284047     -1.276221
Pb      14.88565      0.01690      0.05502         0.312555     -0.433904     -0.168571
Pb       3.82714      3.63358      8.34775        -0.182839      0.525626     -0.209787
Pb       3.85221     14.84653      8.33311        -0.972240      0.313926     -0.322520
Pb       0.11265      3.77906      8.34138        -0.285383      0.095822     -0.685908
Pb      14.98699     14.87441      8.18708         0.138943      0.035378      0.101897
Pb       3.81409      3.75196     12.21509        -0.364241     -0.371994      0.288317
Pb       3.73482      0.01608     12.52729         0.161613     -0.180608     -0.617802
Pb       0.07279      3.67722     12.34791        -0.791549      0.372989     -0.175023
Pb       0.04202      0.02498     12.30451        -0.503681     -0.030649      0.176229
Pb       3.49138      7.56426      4.10073         0.555291     -0.122222      0.021112
Pb       3.76470      7.39960      0.30641        -0.383119     -0.234579     -1.278083
Pb      14.89169      7.48584      4.13135        -0.196174      0.177286     -0.297494
Pb      14.94248      7.55415      0.09695         0.044934     -0.321625     -0.656113
Pb       3.68855      7.55671      8.02823         0.301795      0.027285      1.175195
Pb       0.00421      7.51297      8.25018        -0.422712     -0.093103     -0.279635
Pb       3.77059      7.59940     12.30222        -0.071343     -0.041468     -0.099137
Pb       0.08600      7.29652     12.34435        -0.516685      0.568285     -0.048028
Pb       3.52265     11.26383      4.23919         0.224566      0.325365     -1.161940
Pb       3.70300     10.99547     16.31834         0.008532      1.319039     -0.013314
Pb      14.95896     11.23740      4.12404        -0.205752     -0.016144     -0.323773
Pb      14.90970     11.38935      0.07082        -0.032492     -0.201657     -0.245597
Pb       3.66694     11.07194      8.27855         0.008080      0.171738      0.326572
Pb      14.99268     11.13296      8.20039        -0.664273      0.212761     -0.005171
Pb       3.74944     11.31864     12.37808        -0.017040     -0.250256     -0.204607
Pb       0.02191     11.30115     12.33319        -0.796231     -0.140505      0.328084
Pb       7.53133      3.68511      4.20240         0.301102      0.074197     -0.073310
Pb       7.57739      3.86282     16.37902        -0.550026     -0.269514     -0.505887
Pb       7.46657     14.88287      4.29449         0.062802      0.702345     -0.683284
Pb       7.31165      0.00493      0.00241         0.389454      0.307268     -0.119202
Pb       7.53776      3.64434      8.24959         0.051483      0.510405     -0.031908
Pb       7.52564     14.98474      8.31454         0.294587     -0.435102     -0.325152
Pb       7.46942      3.73883     12.24437         0.234852     -0.197288      0.553915
Pb       7.62173     14.80415     12.46805        -0.514743      0.735862     -0.644243
Pb       7.23807      7.53845      4.02993         0.989840      0.207741      0.009388
Pb       7.50648      7.48907      0.09724        -0.276548     -0.273241     -0.347352
Pb       7.49510      7.49913      8.41408        -0.291014      0.074041     -0.348656
Pb       7.60512      7.40534     12.55571        -0.476721      0.128672     -0.698475
Pb       7.44172     11.38297      4.11972        -0.093796     -0.771790     -0.452054
Pb       7.53040     11.28250      0.13327         0.114701     -0.146373     -1.111852
Pb       7.42500     11.18993      8.29426        -0.406014     -0.168390      0.234045
Pb       7.55343     11.15234     12.38758        -0.600268     -0.130826     -0.145416
Pb      11.12833      3.76041      4.17688         0.633649     -0.199409     -0.704215
Pb      11.31857      3.83813     16.38632        -0.120237     -0.723860     -0.221229
Pb      11.44187      0.00745      4.28485        -0.905385     -0.119599     -1.022591
Pb      11.00654     14.92896      0.17350         1.604948      0.208181     -0.895477
Pb      11.45850      3.80164      8.12598        -0.571506     -0.363698      0.138003
Pb      11.32820     14.86268      8.27573        -0.614743      0.012507      0.368375
Pb      11.35418      3.72715     12.19883         0.139744     -0.570182      0.587499
Pb      11.29702      0.15986     12.30668         0.299174     -0.096606     -0.412980
Pb      11.18785      7.45595      4.23769        -0.023449      0.018912     -0.858335
Pb      11.07971      7.46981      0.17616         0.725559      0.122348     -0.520961
Pb      11.03924      7.44628      8.19888         0.677049      0.298425     -0.033841
Pb      11.33905      7.29794     12.30602        -0.300002      0.928036     -0.402746
Pb      11.30426     11.31041      4.19450        -0.354256     -0.653918     -0.114559
Pb      11.21343     11.11141      0.10657         0.149509      0.536613     -0.944581
Pb      11.01183     11.14936      8.34407         0.985215     -0.160714     -0.783182
Pb      11.17167     11.32705     12.26263         0.658115     -0.560463     -0.257326
Ti       1.83755      1.89476      1.93384        -1.302418     -1.085886      0.708750
Ti       1.78170      1.83838     14.19658         0.847193      0.031601      1.353409
Ti       1.80978     13.18724      2.08594         0.523792     -0.089300     -0.781269
Ti       1.83316     13.06242     14.45471        -0.102823      1.191693     -0.172521
Ti      13.10010      1.88697      2.02793         0.221790     -0.083349     -0.399525
Ti      13.08275      1.86490     14.46101        -0.068312     -0.094829     -1.001759
Ti      13.01066     13.11448      2.10504         0.815295      0.552610      0.030578
Ti      13.06937     13.15385     14.25928         0.682352     -0.406509      0.738870
Ti       1.86226      1.86821      6.15644         0.348542      0.075862      0.583884
Ti       1.82380     13.17021      6.20228        -0.301227      0.503357     -0.563446
Ti      13.13596      1.78848      6.24082         0.621961      0.862072     -0.517667
Ti      13.07908     13.05280      6.19842         0.275262     -0.591448      0.181694
Ti       1.91383      1.81648     10.19878         0.898998     -0.578972      0.072835
Ti       1.86119     13.09589     10.28291         0.184312      0.770670     -0.448865
Ti      13.24474      1.86484     10.12870        -0.512297     -0.300602      0.306178
Ti      13.19750     13.12476     10.33102        -0.644239      0.470077     -0.662127
Ti       1.75437      5.56727      2.11116         0.216464      0.759094     -0.192756
Ti       1.88365      5.57315     14.40667         0.171130     -0.171228     -0.408770
Ti      13.05947      5.62165      1.95287         0.131202     -0.208626      0.340609
Ti      13.12864      5.62099     14.27852         0.909229      0.380569      1.040301
Ti       1.84659      5.56232      6.13256        -0.464115      0.384190     -0.317946
Ti      13.15285      5.57439      6.08827         0.007871      0.466400      0.606713
Ti       1.87087      5.60312     10.22440         0.059474      1.304266     -0.393619
Ti      13.11410      5.65047     10.18338         1.273375     -0.497916     -0.370771
Ti       1.83886      9.41704      1.98473        -0.610023      0.183591      0.100806
Ti       1.68874      9.30730     14.34285         0.875548     -0.168731      0.952238
Ti      13.09235      9.34211      1.93562         0.599234     -0.021921      0.601612
Ti      13.07205      9.37808     14.30277         0.207243      0.366835     -0.563733
Ti       1.75445      9.37679      6.20603        -0.423510      0.022934     -0.630005
Ti      12.97907      9.35625      6.07069         0.479938      0.064698      0.385548
Ti       1.73278      9.38898     10.44611         1.882566     -0.982682     -1.275161
Ti      13.10060      9.36150     10.29136        -0.787765      0.182807     -0.312346
Ti       5.64444      1.92140      2.21656         0.002687     -0.964943     -0.984179
Ti       5.63260      1.93211     14.47683         0.077249      0.012895     -0.543029
Ti       5.57491     13.17121      1.95489        -1.485533      0.696130      0.441667
Ti       5.58589     13.08014     14.30088         0.302691     -0.276877      0.927925
Ti       5.64081      1.83986      6.28756         1.190171     -0.409053     -0.324368
Ti       5.47577     13.14110      6.10005         0.535818      0.303220      0.450590
Ti       5.72628      1.79177     10.29351        -0.711959      1.033641      0.463340
Ti       5.58840     13.09649     10.19431         1.203730      0.026683      1.000650
Ti       5.50932      5.60273      2.21567         1.048180      0.803125     -0.862465
Ti       5.52383      5.54507     14.17528         0.553281      1.472383      1.007984
Ti       5.62547      5.71831      6.19900         0.855105      0.283656      0.322533
Ti       5.55835      5.65106     10.26789         1.164367      0.305755     -0.581947
Ti       5.63104      9.46591      1.90605        -0.233048     -0.105457      1.225833
Ti       5.57109      9.26125     14.43682         0.415315      0.225498     -1.346217
Ti       5.53807      9.50156      6.03579         0.188085     -1.413975      0.615705
Ti       5.59147      9.43569     10.37884        -0.140396     -0.728672     -0.412435
Ti       9.37702      1.84153      1.90009        -0.006129      0.500094      0.806531
Ti       9.34949      1.80255     14.38478         0.907056      1.848128     -0.353678
Ti       9.28450     13.10224      2.08027         1.573864      0.697768     -0.243170
Ti       9.42924     13.07234     14.34540        -0.148201      0.040304      0.211535
Ti       9.43176      1.78950      6.12757        -0.673674     -0.185303      1.675887
Ti       9.25718     13.04892      6.26801         0.566613      0.276901     -0.114292
Ti       9.46988      1.89679     10.23172         0.431409     -1.022965     -0.046972
Ti       9.39256     13.14492     10.30356        -0.675180      0.167066     -0.237204
Ti       9.29778      5.55396      2.07929         0.478065      1.444876      0.221068
Ti       9.44336      5.59361     14.42713        -1.043306     -0.606064     -0.726265
Ti       9.32534      5.55338      6.19139        -0.113945      1.201435     -0.269825
Ti       9.35465      5.54030     10.36821         0.274822      2.134426     -1.002526
Ti       9.41424      9.36127      2.04544        -0.927137     -0.712408      0.535496
Ti       9.35343      9.28622     14.33928         0.169276      1.181226     -0.161895
Ti       9.18635      9.32049      6.05405         1.308942     -0.058117      0.410552
Ti       9.34798      9.36335     10.29684        -0.229731     -1.231979     -0.058241
O       1.66061      1.70695      0.13943         0.824063      0.545947     -0.117757
O       1.76021      1.96874     12.33318         0.683798     -0.369021      0.926187
O       1.85721     13.32163      0.15130        -0.012395     -0.673050      0.801265
O       1.95252     13.16325     12.53151        -0.003704     -0.443896      0.325550
O      13.17672      1.92368      0.13897        -0.108023      0.327962      0.418000
O      13.18506      1.92412     12.48727        -0.152239      0.092791      0.632511
O      12.92584     13.06348      0.29842         0.155430     -0.013824     -0.212664
O      13.20543     13.22416     12.43574        -0.550324     -0.183366      0.518005
O       1.77193      1.86992      4.33035         0.721884      0.182487     -0.428790
O       2.02063     13.10661      4.29101        -0.455359      0.399983      0.613288
O      13.13700      1.78333      4.32617         0.147522      0.084598      0.196231
O      13.09480     13.13981      4.35195        -0.060523      0.099629     -0.241057
O       2.02786      1.92066      8.30188        -0.502346     -0.116919      1.070938
O       1.69057     13.13744      8.37342         0.338166      0.022282      0.638971
O      13.18443      1.76558      8.23274         0.013495      0.450136      1.172984
O      13.23614     13.09730      8.44688         0.048660      0.353086     -0.440636
O       1.95019      5.68075      0.21495        -0.116261     -0.294984      0.269047
O       1.86981      5.59573     12.44792         0.111771      0.029800      0.423090
O      13.07620      5.63403      0.08633         0.043529      0.360783      0.929017
O      13.11597      5.50690     12.42988         0.125754      0.591810     -0.099266
O       1.72209      5.69831      4.21073         0.371655     -0.109426      0.961602
O      13.05746      5.62060      4.26106         0.280321     -0.124594      0.192673
O       1.82845      5.70326      8.29519        -0.236482     -0.370234      0.514880
O      13.14921      5.64670      8.32744         0.085449     -0.171454      0.191974
O       1.78494      9.38510      0.12683         0.093547      0.059618      0.492248
O       1.69336      9.32967     12.49237         0.352010      0.172446      0.222651
O      13.11533      9.42028      0.05971         0.100077     -0.182399      1.130035
O      13.23290      9.42227     12.43275        -0.707533      0.124623      0.253742
O       1.88546      9.49145      4.28358         0.099739     -0.554063      0.291585
O      13.06526      9.44135      4.21376        -0.109809     -0.275862      0.729607
O       1.82987      9.36197      8.42780        -0.056172      0.346755     -0.150440
O      13.16378      9.43303      8.40763        -0.286110     -0.139851      0.412606
O       5.58089      1.97266      0.16227         0.077722      0.210441      1.216176
O       5.73882      2.00167     12.61136        -0.194106     -0.223250     -0.826251
O       5.69393     13.23791      0.11060         0.085508     -0.382522     -0.308226
O       5.56309     13.10691     12.46897        -0.150692      0.335826      0.060993
O       5.67181      1.74803      4.28126        -0.325923      0.288779      0.506101
O       5.56670     13.24970      4.25287         0.041492     -0.297531      0.687474
O       5.50370      1.97435      8.39354         0.666693     -0.701283      0.142559
O       5.69001     13.16261      8.38792        -0.311032     -0.331808     -0.487713
O       5.46993      5.60338      0.26229         0.122105     -0.116574      1.065954
O       5.51685      5.51223     12.35610        -0.179944      0.656219      0.218799
O       5.77151      5.71804      4.31199        -0.776296     -0.180578      0.553295
O       5.69669      5.64056      8.35569         0.249879      0.000693     -0.098514
O       5.70391      9.26335      0.04087        -0.273821      0.465512      0.883988
O       5.73987      9.37515     12.41266        -0.284041     -0.113146      0.649749
O       5.56031      9.50888      4.22089        -0.150641     -0.146527      0.003393
O       5.49792      9.39712      8.38216         0.196781      0.607427      0.145908
O       9.45589      1.77329      0.09936        -0.506708      0.552977      1.011584
O       9.34085      1.91722     12.54409         0.195134     -0.206146     -0.699499
O       9.55344     13.13564      0.10555        -1.165058     -0.242052      1.180089
O       9.33449     13.16525     12.37463         0.541456     -0.349813      1.374496
O       9.36538      1.89243      4.36797        -0.113168     -0.048259     -1.108356
O       9.14198     13.04959      4.37353         0.651091     -0.026477      0.169600
O       9.41146      1.89767      8.40778         0.311157      0.184733      0.031392
O       9.43550     13.18060      8.38169        -0.685448     -0.375717      0.040632
O       9.43779      5.76216      0.06753        -0.657830     -0.563316      1.247070
O       9.49289      5.75405     12.45491         0.054866     -0.251674      1.065663
O       9.42041      5.53714      4.25805        -0.296152      0.014752      0.325126
O       9.25408      5.53592      8.41522         0.481963      0.271346      0.081796
O       9.39184      9.35296      0.12944        -0.570780     -0.186915      0.840499
O       9.28189      9.29269     12.40757         0.303822      0.212627      0.728632
O       9.34804      9.51316      4.24759        -0.156530     -0.189786     -0.239908
O       9.45109      9.34176      8.32253        -0.492446     -0.086102      0.395852
O       3.61539      2.01935      2.21051         2.130241      0.454339      0.468867
O       3.75960      1.65127     14.47305        -1.381242     -0.023616      0.013890
O       3.76704     12.99385      2.14260        -0.247038     -0.049836      0.163184
O       3.73551     13.44033     14.59204         0.246468     -0.251255     -0.288092
O      14.98097      1.63224      2.24218        -0.270257      0.192328      0.430415
O      14.97429      2.18694     14.56352         0.530289     -0.179614     -0.648503
O      14.94246     13.31566      2.28597        -0.502037     -0.398586     -0.045722
O      14.97199     13.01164     14.72168        -0.527002     -0.802904     -0.458721
O       3.87624      2.18590      6.30024        -2.350859      0.199617     -0.158244
O       3.65882     12.84926      6.54446         1.355777     -0.068025     -0.346258
O       0.07957      1.42694      6.29252        -1.537660      0.494212      0.422889
O      14.94893     13.46610      6.19944         0.674697      0.441146      0.725978
O       3.78793      2.18410     10.50641        -0.197610     -0.613011     -0.331099
O       3.75470     12.88285     10.30889        -0.199604     -0.144774      0.300973
O       0.08311      1.61148     10.44893        -0.113888      0.449530     -0.694051
O       0.04278     13.42400     10.60147        -0.085646     -0.467625     -0.515027
O       3.71412      5.44409      2.45563        -0.890455      0.079052     -0.444887
O       3.69729      5.96174     14.51986         0.056647     -0.257596     -0.005208
O      14.94587      5.98883      2.17131         0.159528     -0.273796      0.105104
O      14.97205      5.31028     14.53733         0.552805      0.535631     -0.221812
O       3.76505      5.35138      6.37948        -0.402210     -0.060224     -0.519834
O      14.98330      6.03524      6.35038         0.072412     -0.693313     -0.255334
O       3.75125      5.33234     10.29816        -0.279919      0.443918      0.432384
O       0.01993      5.89651     10.40116        -0.073872     -0.480134     -0.237429
O       3.76550      9.71398      2.03104        -0.248364     -0.605672      0.580608
O       3.67955      9.15137     14.50724        -0.215422      0.006176      0.067361
O      14.96313      9.18566      2.31657         0.493688     -0.032188     -0.504260
O      14.95413      9.79757     14.64370         0.403781     -0.203456     -0.328259
O       3.63180      9.63730      6.37692         0.975121      0.755788     -0.234038
O      14.92328      9.15075      6.22464         0.885888     -0.176092      0.603730
O       3.74138      9.61965     10.63489        -0.682130      0.282098     -0.227427
O      14.95589      9.26790     10.51328         0.280816     -0.243796     -0.304165
O       7.44338      1.85244      2.21952         1.530705      0.078900     -0.216837
O       7.56270      2.11975     14.70248        -1.735018      0.148524      0.032852
O       7.50877     13.22749      2.26593         0.038212      0.320858      0.019755
O       7.52401     13.03454     14.38831        -0.545022     -0.049895      0.411213
O       7.50982      1.48395      6.40339         0.334173      0.519865      0.005946
O       7.40051     13.48845      6.39236         0.474706     -0.356460     -0.185081
O       7.56889      1.71353     10.29235        -0.473649      0.119105      0.584726
O       7.51059     13.36718     10.38505         0.074925      0.194897      0.304685
O       7.47678      5.78768      2.15417        -0.562728      0.298767      0.076156
O       7.44527      5.45875     14.35791         0.358555     -0.206708      0.422239
O       7.54375      6.06741      6.31683        -1.034376     -0.198887      0.143023
O       7.58600      5.75754     10.70041        -1.804821      0.437725     -0.710800
O       7.46772      9.24628      2.24156         0.335442      0.171328     -0.466603
O       7.47117      9.53823     14.50804         0.375778      0.208663      0.154027
O       7.38652      8.99115      6.26178        -0.262948      0.188709      0.295838
O       7.49978      9.38985     10.23872        -0.213817     -0.785262      0.282085
O      11.22967      2.16209      2.25621        -0.489608     -0.172713     -0.043802
O      11.25364      1.78467     14.61623         0.128185     -0.195214     -0.295321
O      11.18439     13.06966      2.62719        -0.327857     -0.046099     -1.134948
O      11.25392     13.41913     14.49820        -0.307467     -0.037774     -0.457933
O      11.25983      2.19631      6.26369         0.000988      0.005674      0.411648
O      11.22437     12.84222      6.40124        -0.748289     -0.366862     -0.231979
O      11.38484      2.06219     10.45701        -1.307677      0.260362      0.015560
O      11.26013     13.15674     10.42552         0.930049     -1.189004      0.394312
O      11.21137      5.45993      2.21709         0.480709     -0.306293     -0.163720
O      11.23505      5.93596     14.51780         0.837114      0.144746     -0.153798
O      11.25302      5.33896      6.38599        -0.165558     -0.090203     -0.135367
O      11.32666      5.49602     10.52297        -1.146076     -0.380478     -0.282855
O      11.23686      9.48569      2.19422        -0.229386      0.432253     -0.009739
O      11.21520      9.20485     14.58566         0.057971     -0.302254     -0.406800
O      11.22354      9.73890      6.29758        -0.780073      0.066664      0.188053
O      11.19356      9.56411     10.41581         1.669007      0.338659      0.423474
O       1.43260      3.76861      2.20304         0.832047     -0.378681     -0.174715
O       2.05768      3.69392     14.54712         0.387678      0.464504      0.358106
O       1.96329     14.98334      2.35636         0.382282      1.009282      0.098806
O       1.52141     15.00286     14.41555         0.716561      1.051995     -0.019173
O      13.39206      3.74358      2.27058        -0.297192      1.085576     -0.195375
O      12.92226      3.83921     14.55074        -0.657634     -0.970006      0.080526
O      12.89951      0.07565      2.19464        -0.385840     -1.636219      0.357728
O      13.35173      0.02298     14.57841        -0.171731     -0.054541     -0.245810
O       1.48310      3.74426      6.26233         0.426788      0.603379      0.311573
O       2.23384      0.05529      6.35106         0.222936     -0.942432      0.037013
O      13.40852      3.68606      6.38819         0.100946      0.619145     -0.009476
O      12.74783     14.98034      6.39973         0.408997     -0.259544     -0.323461
O       1.65224      3.78845     10.33797        -0.096299     -1.116124      0.004806
O       2.18816     14.93324     10.56144        -0.099907      1.671933     -0.504894
O      13.36450      3.72505     10.32047         0.322816      0.593449      0.074986
O      13.01914      0.06203     10.44507        -0.121089     -0.444083      0.054685
O       2.09581      7.54870      2.16158         0.071143     -0.033175      0.398003
O       1.49147      7.43717     14.57150        -0.114751      1.202798     -0.291276
O      12.86438      7.50802      2.23759         0.248252     -0.433722     -0.189607
O      13.48854      7.60213     14.37717        -0.255820     -1.824596      0.377652
O       2.10752      7.52647      6.28897        -0.145705     -0.097857     -0.298951
O      12.77100      7.49779      6.23378         0.204333     -0.102794      0.222487
O       2.11270      7.54770     10.50063        -0.199084     -0.562819     -0.024864
O      13.00380      7.47621     10.40032        -0.286601      1.035607      0.311549
O       1.66475     11.26636      2.30590         0.067019      0.130696     -0.243528
O       2.13040     11.26673     14.62597        -0.475152     -0.738948     -0.602418
O      13.21948     11.17647      2.26855        -0.150840      1.568690     -0.007513
O      12.83016     11.28279     14.45631         0.033323      0.916476      0.123933
O       1.52982     11.36439      6.30240         0.084287     -1.857741      0.231411
O      13.46666     11.25395      6.31931        -0.205556     -0.106751      0.079040
O       1.66100     11.27035     10.57375         0.042900     -0.173185     -0.159952
O      13.31403     11.32708     10.54156        -0.090005     -1.145864      0.012147
O       5.76522      3.81509      2.64682        -0.619828     -0.804607     -1.179272
O       5.29112      3.83809     14.65896         0.101038     -1.402926      0.105342
O       5.63393      0.04968      2.19704        -0.619970      0.132238     -0.015439
O       5.76699      0.04214     14.58371         0.518138     -0.436386     -0.191607
O       5.97923      3.71602      6.18654        -0.112496      1.137796      0.243948
O       5.30039     15.00250      6.47612        -0.014889     -0.342270     -0.457807
O       5.81481      3.80364     10.46675         0.429387     -1.230447     -0.223796
O       5.43248      0.00701     10.45653        -0.162036      0.173379      0.155055
O       5.45334      7.58113      2.31334        -0.372465     -0.319825     -0.196184
O       5.79266      7.42796     14.41846         0.221900      0.331461      0.240179
O       5.16062      7.59175      6.24355         0.866799     -0.921442     -0.260157
O       5.40754      7.55107     10.37395         0.338912     -1.052094      0.357260
O       5.86611     11.36335      2.01702         0.205120     -1.909647      0.302193
O       5.40983     11.17742     14.47984        -0.050136      1.516807      0.215631
O       5.95876     11.31969      6.24993        -0.387059     -0.260177      0.337599
O       5.88555     11.29620     10.50653        -0.313408      0.326585     -0.043950
O       9.18155      3.77321      2.11552        -0.040476     -1.091377      0.083462
O       9.51663      3.75433     14.75044         0.232491      1.159454     -0.406345
O       9.50579      0.02347      2.15232        -0.111649     -0.522369      0.404368
O       9.21369      0.03430     14.52352        -0.355937     -1.968406      0.012573
O       8.99540      3.78574      6.35763         0.331880     -1.515226     -0.077448
O       9.67733     14.94508      6.41363        -0.168709      0.372732     -0.387381
O       9.18841      3.77668     10.59581         0.675317     -2.027867     -0.365577
O       9.66559      0.00948     10.51352        -0.800775      1.316517     -0.131572
O       9.54807      7.47828      2.27544        -0.360061      0.510711     -0.306639
O       9.12318      7.52313     14.65421        -0.147333     -0.938812     -0.542418
O       9.76445      7.52481      6.22206        -0.533206     -0.314240      0.369267
O       9.52478      7.50301     10.30827         0.134295     -0.205066      0.298909
O       9.27115     11.23551      2.05647        -0.293647      0.735116      0.343571
O       9.50593     11.24139     14.60860         0.302741      0.280658     -0.591827
O       8.95677     11.14158      6.47329         0.290078      1.768857     -0.412086
O       9.24742     11.25018     10.49005         0.249395      0.985052     -0.082756
