  # total energy = -7878.24067908 
CRSYTAL
PRIMVEC
    15.2000000000000000    0.0000000000000000    0.0000000000000000
     0.0000000000000000   15.2000000000000000    0.0000000000000000
     0.0000000000000000    0.0000000000000000    17.000000000000000
PRESSURE
7.79066 7.62503 0.087928 -0.01279 0.015126 0.063138
PRIMCOORD
320 1
Pb       3.67757      3.94157      4.35856         0.123050     -0.729807     -0.926925
Pb       3.80943      3.90680      0.06727         0.135677     -0.574964     -0.077307
Pb       3.70494      0.11545      4.38154         0.289510      0.275044     -0.245031
Pb       4.01208     15.17734      0.06349        -0.619075      0.036625     -0.089264
Pb      15.16939      4.11120      4.34733        -0.012345     -0.929114     -0.572498
Pb      15.14786      3.77085     16.93472         0.426601     -0.064983      0.476963
Pb       0.07657      0.16890      4.21100        -0.716109     -0.398489      0.307827
Pb       0.09723     15.16455     16.89175        -0.152393     -0.504793      0.472527
Pb       3.96510      3.59354      8.51231        -0.344767      0.497746     -0.651132
Pb       3.80897     15.10569      8.48005        -0.302367     -0.019036     -0.619343
Pb      15.12380      3.76578      8.44425         0.036939     -0.226047      0.408520
Pb       0.01243     15.14404      8.71628        -0.439050     -0.025080     -0.934918
Pb       3.78459      3.76784     12.75390         0.554149      0.181716     -0.071196
Pb       3.83467     15.05374     12.77765         0.434130      0.165428     -0.216140
Pb       0.15234      3.58060     12.80706        -0.727231      0.491659     -0.662659
Pb       0.04173     15.06023     12.71941        -0.552390      0.368524     -0.464944
Pb       3.71649      7.60894      4.32137        -0.338566      0.246525     -0.016978
Pb       3.88022      7.69463      0.26672        -0.344772     -0.182755     -1.082554
Pb      15.13261      7.63691      4.14969         0.372877      0.183144      0.402709
Pb       0.13955      7.60133     16.94192        -0.680048      0.047965      0.261868
Pb       3.76984      7.51837      8.44823        -0.301988      0.369744      0.378328
Pb      15.00162      7.53697      8.49773         0.962546      0.471007     -0.278058
Pb       3.68989      7.52053     12.74171         0.181882      0.293644     -0.568112
Pb      15.09960      7.44925     12.73998         0.344815      0.209915     -0.467673
Pb       3.56092     11.64137      4.30137         0.537945     -0.856120      0.584323
Pb       3.95968     11.40926      0.06026        -0.657095      0.114603      0.048660
Pb      14.94551     11.57175      4.31900         0.711527     -0.451018     -0.097254
Pb       0.05911     11.45360     16.92229        -0.322397      0.082257      0.076464
Pb       3.79509     11.44472      8.42093        -0.697616     -0.270666      0.428943
Pb      15.03138     11.25198      8.63580         0.131682      0.351630     -0.371637
Pb       3.63281     11.21232     12.84234         0.343957     -0.120731     -0.482256
Pb      15.12087     11.28866     12.59895        -0.326111     -0.020567      0.318333
Pb       7.55892      3.74334      4.11829         0.529244     -0.048038     -0.149992
Pb       7.66708      3.87019      0.06387        -0.724419     -0.439539      0.002954
Pb       7.50754     15.19983      4.24222         0.762112      0.047349     -0.032965
Pb       7.57681     15.10833      0.09585         0.056393     -0.361635     -0.479934
Pb       7.81571      3.79330      8.20374        -0.739048     -0.197554      0.915035
Pb       7.51461     15.12222      8.43070         0.515877      0.410246      0.129739
Pb       7.44779      3.70197     12.67065         0.276825      0.386531      0.155609
Pb       7.61228      0.16813     12.67500        -0.098557     -0.447596      0.282723
Pb       7.66108      7.53963      4.41364         0.071153      0.142796     -0.734092
Pb       7.51980      7.58550     16.98137        -0.020307      0.127678      0.120510
Pb       7.62990      7.61309      8.43841         0.153871      0.135799     -0.000424
Pb       7.59627      7.56162     12.78325        -0.071458     -0.503685     -0.419659
Pb       7.52413     11.27190      4.11728        -0.015095      0.698444      0.698460
Pb       7.67720     11.42903      0.04988        -0.246096      0.427679     -0.106809
Pb       7.43916     11.46057      8.31479         0.675216     -0.472468      0.238624
Pb       7.49828     11.32110     12.70478         0.074644      0.087001      0.163043
Pb      11.46839      3.86666      4.04526        -0.481198     -0.454334      0.441792
Pb      11.48966      3.83852      0.01002        -0.615864     -0.542586     -0.107322
Pb      11.46669     15.19369      4.25241        -0.076765      0.407182     -0.040052
Pb      11.39284     15.06288     16.94341        -0.053884      0.186596     -0.339678
Pb      11.41023      3.66312      8.42065        -0.056443      0.236078     -0.203028
Pb      11.22781     15.13422      8.62158         0.513506      0.425146     -0.410613
Pb      11.38374      3.74022     12.74017        -0.036696      0.340932      0.078542
Pb      11.31970      0.07817     12.85300         0.025777     -0.258687     -0.446150
Pb      11.54305      7.56688      4.11377        -0.684627     -0.067805      0.288764
Pb      11.32304      7.56270     16.94029         0.311785      0.113329     -0.414036
Pb      11.39864      7.59455      8.35103        -0.628536      0.119717      0.804959
Pb      11.27002      7.48382     12.61750         0.083571     -0.067653      0.588692
Pb      11.46721     11.44453      4.20690        -0.225884     -0.334184      0.172326
Pb      11.47225     11.32128     16.92963        -0.143055      0.207231     -0.080793
Pb      11.27967     11.45934      8.66607         0.354453     -0.504953     -0.689997
Pb      11.30367     11.16408     12.89574         0.311139      0.436560     -0.386272
Ti       1.84056      1.94746      2.17827         0.604977      0.479577      0.373424
Ti       1.92984      1.82756     15.06720         1.133905      0.571847      0.205459
Ti       1.81232     13.34017      2.37681        -0.070583     -0.304025     -2.177371
Ti       1.93361     13.23751     14.91864         0.089515     -0.592546      0.438379
Ti      13.30029      1.92092      2.14506         0.142257     -1.164811      0.106360
Ti      13.30733      1.86566     14.96785        -0.825268     -0.243331     -0.860967
Ti      13.24105     13.32571      2.10939         1.617018     -0.380258      0.132235
Ti      13.30207     13.31584     14.85804         0.083517     -1.393078      0.567804
Ti       1.79287      1.92128      6.48000         1.021737     -1.199510     -0.074677
Ti       1.78274     13.32916      6.63805         0.177348     -0.263815     -0.665811
Ti      13.29333      1.90123      6.42787        -0.582638     -1.109832     -0.696431
Ti      13.26462     13.35679      6.57586         1.240416     -0.647386      0.109300
Ti       1.95588      1.90381     10.65560        -1.128099     -0.724821     -0.373253
Ti       1.96435     13.30615     10.79491        -0.514487     -1.309191     -1.503853
Ti      13.25922      1.90611     10.73741         0.770096      0.041553     -0.685376
Ti      13.21276     13.27830     10.77116         0.462941     -0.072342      0.763901
Ti       1.90725      5.77103      2.20842        -0.341594     -0.668166     -0.511850
Ti       1.90465      5.65221     15.02901         0.071987      0.269521     -0.244919
Ti      13.30351      5.67305      2.06956         0.481480      0.405839      1.713091
Ti      13.29543      5.59192     14.93463        -0.591324      2.234389     -0.891581
Ti       1.94753      5.61538      6.59533        -1.166801      1.772259     -0.524946
Ti      13.25682      5.70371      6.54284         0.326945     -0.025460     -1.384363
Ti       1.93277      5.63001     10.63755        -0.719607      0.484753     -0.392909
Ti      13.31118      5.65429     10.66923        -0.039487     -0.604591      0.245095
Ti       1.84235      9.54275      2.29621        -0.221827     -0.038110     -0.455615
Ti       1.83027      9.45881     15.02240         1.036127      0.087907     -0.922636
Ti      13.22221      9.46683      2.18067         1.393452      0.985125     -1.145896
Ti      13.24875      9.44691     15.01785        -0.420882     -0.021308     -0.595174
Ti       1.78979      9.52346      6.54929        -0.125975     -0.719318      0.717439
Ti      13.20719      9.54895      6.49051         0.437321      0.686720     -0.690207
Ti       1.83888      9.47924     10.72433         0.604390     -1.036580     -1.068811
Ti      13.13928      9.39086     10.71058         0.969424      0.856287     -0.769939
Ti       5.65602      1.91364      2.26436         0.560488      0.229211      0.067789
Ti       5.74721      1.91911     15.07914        -0.500267     -0.649151     -0.539921
Ti       5.61810     13.30993      2.36212         0.866803     -0.088173     -0.317293
Ti       5.67549     13.21340     14.96696         0.921691      0.736015      0.378202
Ti       5.76272      1.88976      6.38032        -1.654895     -0.564450     -0.946953
Ti       5.70726     13.33217      6.42646        -0.781782      0.069865     -1.092857
Ti       5.60698      1.81406     10.60827         2.256727      0.837879     -0.014693
Ti       5.79642     13.22248     10.64110        -0.868241      0.706693     -0.432859
Ti       5.67781      5.73846      2.26347         0.427608     -0.708286     -0.697742
Ti       5.63086      5.69095     14.98110         1.167489      0.023029     -0.541532
Ti       5.71636      5.65928      6.38778         0.133779     -0.082938     -0.125572
Ti       5.73859      5.66287     10.57487        -0.200302      0.266854      0.362695
Ti       5.53710      9.47752      2.34352         1.181563      0.795852      0.551256
Ti       5.64204      9.52312     15.01746        -0.244033     -0.573229     -1.657343
Ti       5.57858      9.43903      6.49942         0.646959      0.504143     -1.255395
Ti       5.70155      9.42869     10.70736        -1.779830      0.092761      0.043160
Ti       9.53193      1.85153      2.08745        -1.202083      0.765925      0.661869
Ti       9.44926      1.88998     15.12544         0.487106     -0.259905     -1.055058
Ti       9.53355     13.30088      2.33928        -0.846060     -1.016581     -0.922646
Ti       9.51831     13.22771     14.87585        -0.750148      0.850192     -0.700266
Ti       9.51267      1.79938      6.40106         0.479917      0.541870     -1.807858
Ti       9.58787     13.30890      6.47632        -0.868618      0.023839     -1.180702
Ti       9.50763      1.91859     10.73414        -0.969518     -0.655484     -0.825643
Ti       9.50617     13.28209     10.72894        -0.576797      0.074982      0.198691
Ti       9.43638      5.70783      2.12699         1.044605     -0.565342      1.386072
Ti       9.45134      5.63693     15.01315        -0.076997      0.446073     -1.780818
Ti       9.54945      5.70978      6.36663         0.503125      0.121539     -1.222146
Ti       9.51981      5.60062     10.69368        -0.591271      1.352427     -0.072705
Ti       9.41445      9.47910      2.20712         0.611863     -0.041411     -0.478904
Ti       9.40503      9.49517     15.02177         0.494689     -0.697283     -0.137462
Ti       9.48056      9.54341      6.44287         0.153084     -0.639513      1.197246
Ti       9.36904      9.48716     10.70291         0.383548     -0.696987     -1.049339
O       1.89977      1.88038      0.36939        -0.321541     -0.322916      0.932373
O       1.85699      1.96544     13.24055         0.376971     -0.467192      0.638222
O       1.80554     13.23768      0.50208        -0.097560      0.258787      0.947968
O       2.03288     13.23698     13.12025        -0.423583      0.376036     -0.142146
O      13.24416      1.87495      0.35646         0.407460      0.053043      0.176731
O      13.28228      2.00514     13.09748         0.078251     -0.586583      1.519158
O      13.25547     13.23080      0.30587         0.127467      0.193435      0.384168
O      13.38260     13.25600     13.11487        -0.477287      0.436779     -0.818534
O       1.81047      1.90229      4.66585         0.183859      0.222886      0.494876
O       1.78360     13.29876      4.77407         0.327941      0.236414     -0.171254
O      13.22441      1.87330      4.59795         0.270777     -0.208588      0.669036
O      13.34716     13.33574      4.76761        -0.365991     -0.197550     -0.048919
O       1.93620      1.88571      8.85263        -0.020762      0.098346      0.973577
O       1.99795     13.34204      8.93451        -0.571212     -0.021825      0.847374
O      13.33294      1.96578      8.89310        -0.582022     -0.136885      0.744454
O      13.31105     13.32631      8.99976        -0.331508     -0.255313     -0.072457
O       1.99112      5.83561      0.37792        -0.282257     -0.257146      0.598008
O       1.86753      5.61916     13.20000         0.112112     -0.114675      0.908359
O      13.25336      5.61439      0.35768         0.113158      0.123989     -1.292537
O      13.23968      5.81312     13.09458         0.219079     -0.837889      1.501103
O       1.70966      5.70016      4.70655         0.970780     -0.458462      0.806260
O      13.23119      5.68123      4.66482         0.292310      0.160073      0.650994
O       2.06711      5.53039      8.82833        -0.694133      0.215158      0.607088
O      13.19520      5.66039      8.85756         0.296876     -0.107928     -0.436803
O       2.00844      9.32142      0.45849        -0.557407      0.720998      0.644260
O       1.93827      9.47219     13.20265        -0.236452     -0.167968      0.175345
O      13.25787      9.58369      0.33861        -0.028343     -0.374216      0.390978
O      13.08464      9.49739     13.21003         0.591789     -0.570884     -0.299323
O       1.76579      9.46326      4.81193         0.124874     -0.095731     -1.175086
O      13.19036      9.63334      4.60557         0.305965     -0.675312      1.138625
O       1.98246      9.42781      8.92385        -0.595995      0.017542      0.411912
O      13.22600      9.46051      8.84737        -0.105453     -0.171475      1.841749
O       5.71359      1.84862      0.45682        -0.280394     -0.258513     -0.017768
O       5.78041      1.85553     13.23439        -0.302839      0.123528      0.609231
O       5.70251     13.24595      0.51841        -0.265992      0.411378      0.286996
O       5.69640     13.15108     13.21587        -0.140857      0.314343     -1.417333
O       5.72138      1.90450      4.53930         0.114554     -0.019979      0.869520
O       5.51861     13.28185      4.59097         0.555904      0.246368      1.134942
O       5.74196      1.87542      8.80177        -0.324931     -0.096756      0.494102
O       5.77573     13.39068      8.77138        -0.185150     -0.289981      1.233025
O       5.67514      5.70402      0.41192        -0.134653      0.199584      0.665868
O       5.69648      5.61282     13.16251        -0.138058      0.153370      0.962669
O       5.66796      5.72575      4.55564        -0.043534      0.047679      1.067431
O       5.66592      5.67673      8.75338         0.385145     -0.353890      0.887550
O       5.59690      9.50464      0.54621        -0.130451      0.013906     -0.575274
O       5.76138      9.56536     13.12047        -0.266553      0.214063      1.513732
O       5.69125      9.51564      4.67161        -0.357946     -0.413521      0.926639
O       5.62915      9.42986      8.92738         0.391076      0.017288     -0.805320
O       9.40382      2.03004      0.28911         0.754610     -0.688545      0.452986
O       9.37340      1.93862     13.22916         0.538181     -0.631785      0.327070
O       9.51013     13.20566      0.51120         0.135808     -0.218117      0.327573
O       9.55454     13.29417     13.05396        -0.493290      0.133028      0.688482
O       9.50912      1.69305      4.59326         0.061147      0.211411      0.596890
O       9.65190     13.39778      4.67530         0.080261     -0.013807      0.387530
O       9.47915      1.85509      8.91728         0.196525      0.678630      0.244795
O       9.48458     13.33338      8.87683         0.091796     -0.402460      0.244517
O       9.40696      5.55256      0.37857         0.536125      0.396051     -1.223650
O       9.45833      5.75588     13.12761         0.132114     -0.261619      1.361559
O       9.53332      5.84465      4.53325         0.381388     -0.270905      1.153097
O       9.51562      5.55288      8.89127        -0.198302      0.100370      0.028430
O       9.36100      9.65833      0.38802         0.629376     -0.504155      0.949720
O       9.42697      9.45247     13.21074        -0.247701      0.137404     -0.242980
O       9.53490      9.30132      4.72679        -0.060970      0.223767     -1.261850
O       9.37279      9.41554      8.88105         0.065126      0.473805      0.826646
O       3.83766      1.85250      2.59220        -1.287471      0.330480     -0.044108
O       3.83791      2.03141     15.42655        -0.898965     -0.909963     -0.424975
O       3.78048     13.34259      2.56493        -1.070424      0.221466      0.272215
O       3.79429     13.09715     15.29510        -0.402509      0.379669      0.301567
O       0.00171      1.96539      2.61504         0.050612     -0.415171     -0.703567
O      15.18191      1.81433     15.39624         0.339499      0.037512     -0.491833
O      15.16670     13.26239      2.65944        -0.199745      0.550310     -0.310582
O       0.00187     13.30152     15.20873         0.559415      0.368409      0.395382
O       3.77765      1.84902      6.62422        -0.277772      0.180914      0.514728
O       3.74074     13.34195      6.87500         0.588266      0.182495     -0.202276
O      15.12299      1.81503      6.83905         0.379532      0.688063      0.026160
O      15.18301     13.20483      6.99820        -0.403086     -0.208745      0.172204
O       3.82808      1.99359     10.99005        -1.108414     -0.368571      0.190271
O       3.76617     13.17446     10.97576         1.724469      0.360475      0.504011
O      15.15377      1.86081     11.00972         1.356888     -0.360848      0.302262
O      15.14244     13.31103     11.13458         0.751504      0.062928     -0.209668
O       3.77207      5.69962      2.54915         0.045045      0.189711      0.405281
O       3.83528      5.49696     15.27702        -1.374224      0.286016     -0.063408
O       0.02261      5.81335      2.47897        -0.991441     -0.561818      0.125225
O      15.14465      5.75929     15.36136         0.677305     -0.492905     -0.299572
O       3.82411      5.63536      6.75762         0.194647     -0.310542     -0.575817
O      15.15259      5.58021      6.88607        -0.294756      0.221638     -0.035410
O       3.73789      5.73637     10.98225         1.421297     -0.672713      0.388968
O      15.16635      5.70919     10.96162         1.205787     -0.195888      0.091649
O       3.71902      9.48114      2.74669        -0.103779     -0.137571     -0.123063
O       3.75416      9.57797     15.33493         0.649780      0.079011      0.028042
O       0.01694      9.39413      2.54235        -0.510170      0.173162     -0.106438
O      15.14649      9.39344     15.25053         0.269031     -0.137067      0.356055
O       3.74547      9.36615      6.86547         0.400378      0.213678     -0.377400
O      15.09029      9.48276      7.01391         0.690854     -0.060076     -0.490386
O       3.73949      9.52010     11.10385         0.899654     -0.096050      0.295969
O      15.11771      9.46029     11.03817        -0.181606     -0.057171      0.093773
O       7.62571      1.95068      2.49409         0.072435     -0.383053      0.248327
O       7.61101      1.78219     15.45894        -0.412229     -0.116937     -0.332605
O       7.63052     13.26479      2.68322        -0.118714     -0.456768     -0.094011
O       7.55320     13.26824     15.38223         0.998866     -0.113719     -0.153176
O       7.57892      1.83754      6.65918         0.806699      0.108641      0.386896
O       7.65000     13.33694      6.65159        -0.997754     -0.288096      0.355766
O       7.54523      1.90672     11.04325         0.407822     -0.163057     -0.017029
O       7.59243     13.55947     10.92195        -0.535085     -0.796636      0.356296
O       7.65114      5.70611      2.54059        -1.759585      0.300384      0.185625
O       7.60032      5.78004     15.46956        -1.022921     -0.391466     -0.706051
O       7.66842      5.66246      6.52432        -0.842562      0.042456      0.743041
O       7.56872      5.71056     11.03902        -0.126461     -0.345049     -0.382024
O       7.57119      9.47409      2.65664        -0.183173      0.040817     -0.323873
O       7.58143      9.45990     15.45961        -1.159724      0.114094     -0.430839
O       7.55130      9.48318      6.77210        -0.056133      0.057158      0.157675
O       7.52262      9.35607     11.06118         0.950831      0.576313      0.288682
O      11.35217      1.88433      2.48966         1.143273      0.033435     -0.121385
O      11.42883      1.93722     15.38130        -0.420029     -0.124829     -0.413388
O      11.47071     13.28123      2.64565        -0.212466     -0.056093     -0.298641
O      11.41341     13.18981     15.14462        -0.335846      0.360052      0.515355
O      11.39344      1.77699      6.71516         0.170319      0.024036      0.631746
O      11.41917     13.31851      6.91592        -0.686849     -0.037498      0.243420
O      11.39361      1.88804     11.10776        -0.687496      0.479092      0.068068
O      11.32575     13.15558     11.01301         0.279935      0.517870     -0.070037
O      11.44137      5.65412      2.46172        -0.329659      0.039757     -0.106336
O      11.34266      5.55719     15.38217         0.557449      0.278573     -0.218434
O      11.40856      5.73146      6.81986        -0.449584     -0.404463     -0.037536
O      11.41984      5.61218     11.04583        -0.686136      0.355652      0.091165
O      11.43865      9.51511      2.45730        -1.494947     -0.242105      0.240785
O      11.31571      9.57828     15.27982         0.151443     -0.565495      0.566255
O      11.39736      9.51029      6.91635        -0.875092      0.057081     -0.299744
O      11.30242      9.47900     11.01092        -0.345958     -0.148899      0.100613
O       1.88310      3.86079      2.60512         0.180310     -0.464592     -0.229847
O       1.83524      3.75083     15.54222        -0.225824      0.566832     -0.994595
O       1.94174      0.05961      2.68630        -0.547081     -0.293270     -0.411655
O       2.03175     15.11968     15.33594        -0.286362      0.559906     -0.193317
O      13.38207      3.76614      2.42361        -0.474333      0.867536      0.339991
O      13.34349      3.74731     15.30321         0.154851      0.269371      0.018163
O      13.40592     15.17741      2.44922        -0.496465      0.293086     -0.024900
O      13.19570     15.16726     15.27100         0.270040      0.559636     -0.134313
O       1.82749      3.73641      6.88450         0.174345      0.201649     -0.394289
O       1.73808     15.18640      6.90159         0.515599      0.637748     -0.052222
O      13.20279      3.76440      6.61340         0.141695      0.133174      0.853230
O      13.35991     15.11325      6.94815        -0.206032      1.554300     -0.136360
O       1.93380      3.69796     11.16348        -0.450938      0.972989     -0.353098
O       1.96420     15.16510     11.10617        -0.077106      1.066141      0.196980
O      13.37858      3.81432     11.02143        -0.576022     -0.666692      0.207054
O      13.14931     15.19920     11.13722         0.334183     -0.256978     -0.036050
O       1.86792      7.58798      2.72069         0.627511      0.488549     -0.095429
O       1.95968      7.56055     15.32610        -0.008650     -0.550697     -0.177347
O      13.26396      7.58468      2.49101         0.106742     -0.294082     -0.109686
O      13.17076      7.51016     15.38330        -0.078644      0.287105     -0.141905
O       1.80253      7.50144      6.79694         0.244431      0.007738      0.539640
O      13.23454      7.62851      6.81072         0.372785     -0.661281     -0.179631
O       1.91404      7.51447     11.09130        -0.395020      0.168004     -0.023456
O      13.34562      7.54183     11.06267        -0.735227      0.713001     -0.199428
O       1.83840     11.40983      2.66217         0.208848     -0.055958     -0.169044
O       1.81861     11.34117     15.20947        -0.303768      0.628481      0.544380
O      13.42245     11.37164      2.48113        -0.586068      0.718556      0.219007
O      13.29199     11.37159     15.13431         0.290355      0.045313      0.773338
O       1.96046     11.36977      6.81322        -0.126445      0.085320      0.378831
O      13.29033     11.38435      6.95919        -0.309202      0.214899     -0.217405
O       1.84684     11.32156     11.02638        -0.322950      1.117176      0.436392
O      13.18096     11.34696     11.06804         0.543035     -0.361140     -0.118413
O       5.69166      3.89102      2.58865        -0.017007     -1.196431     -0.005829
O       5.70208      3.73232     15.38867         0.865783      1.065929     -0.183181
O       5.82726      0.01922      2.67616        -0.778051     -0.230068     -0.801302
O       5.64370     15.09020     15.38049        -0.281958      0.903348     -0.010482
O       5.74176      3.70493      6.70930        -0.201246      1.801816      0.154849
O       5.62702     15.19059      6.79444         0.440467     -0.012804     -0.271751
O       5.68690      3.78380     11.04588        -0.357100      0.229215     -0.370422
O       5.58817      0.02789     11.09337        -0.201381     -0.928065     -0.076637
O       5.57829      7.60993      2.49233         0.242794     -0.054776      0.480453
O       5.51939      7.62640     15.24705         0.601449     -0.514321      0.408746
O       5.70881      7.54029      6.81558         0.089280     -0.018151     -0.446736
O       5.68349      7.60041     11.04364        -0.371552     -1.339914     -0.031438
O       5.55290     11.42196      2.58900         0.622281     -0.628392      0.190589
O       5.71905     11.36197     15.41344         0.178531     -0.395099      0.192850
O       5.57661     11.48241      6.83266         0.485364     -1.422985     -0.201983
O       5.85745     11.41567     10.82390         0.157498     -0.100684      0.488576
O       9.43187      3.78416      2.51109         0.642817     -0.230539      0.115596
O       9.40086      3.77239     15.21663        -0.139879      0.013679      0.364152
O       9.52897     15.11887      2.39347         0.022508      1.520987      0.176217
O       9.54843     15.10265     15.31026         0.128047      0.624631      0.233893
O       9.55614      3.75293      6.65629         0.088933      0.299376      0.210987
O       9.44455      0.03058      6.88212         0.399273     -1.475947      0.222627
O       9.53410      3.78572     11.08612        -0.311675     -0.489390      0.061751
O       9.50773      0.01016     10.93429         0.587991      0.274459      0.739981
O       9.48118      7.56043      2.37640         0.459223      1.282734      0.165398
O       9.44806      7.56873     15.34237         0.548335      0.269449      0.376030
O       9.54840      7.57482      6.82967        -0.539083     -0.147346      0.003048
O       9.40463      7.55476     11.04667         0.468404      0.049423     -0.055979
O       9.60587     11.31027      2.76821        -0.645278      0.295811     -0.441971
O       9.49847     11.40022     15.24169        -0.583378     -0.311736      0.196633
O       9.53295     11.39535      6.72783        -0.087994      0.484170      0.265207
O       9.35343     11.37373     11.06642        -0.229987     -0.152138     -0.320046
