  # total energy = -7881.10465739 
CRSYTAL
PRIMVEC
    15.3600000000000000    0.0000000000000000    0.0000000000000000
     0.0000000000000000   15.3600000000000000    0.0000000000000000
     0.0000000000000000    0.0000000000000000    17.440000000000000
PRESSURE
0.574779 0.963501 -3.64919 -0.072573 -0.302697 0.030053
PRIMCOORD
320 1
Pb       3.91319      3.81972      4.39760        -0.071980     -0.343692     -0.088971
Pb       3.91878      3.81182      0.01553        -0.680550      0.392144     -0.473938
Pb       3.77309      0.02115      4.33421         0.354210      0.398641     -0.349961
Pb       3.73036     15.30415     17.35116         0.185071      0.150960      0.417355
Pb       0.07385      3.76026      4.36825        -0.035763      0.113966     -0.199470
Pb       0.07661      3.93028      0.00224         0.226847     -0.232313     -0.252255
Pb       0.10643      0.03516      4.35039        -0.058086     -0.327935     -0.171846
Pb      15.23494      0.01951     17.37907         0.169100     -0.124833     -0.140218
Pb       3.75162      3.76070      8.72808        -0.047176      0.148293     -0.255808
Pb       3.82269     15.34665      8.60103        -0.016676      0.019373      0.459552
Pb      15.11560      3.97142      8.63494         0.391131     -0.476437      0.089993
Pb      15.20013     15.31765      8.72843         0.114291     -0.128735     -0.301844
Pb       3.83385      3.64647     13.09483         0.333962      0.215778     -0.094243
Pb       3.74430      0.00851     12.92923         0.219925      0.116034      0.510381
Pb       0.03341      3.78826     13.04328         0.296982     -0.301355     -0.063093
Pb      15.30749     15.24993     13.07519         0.152396      0.221832     -0.255284
Pb       3.84647      7.66769      4.32647         0.498584     -0.220093      0.087312
Pb       3.81747      7.59113     17.43036        -0.284703      0.147451     -0.371531
Pb       0.15373      7.82939      4.33143        -1.184413     -0.595843     -0.279020
Pb      15.25382      7.69572      0.02324         0.158500      0.028910     -0.117701
Pb       3.80174      7.73150      8.61940        -0.057609     -0.465969      0.459009
Pb      15.34890      7.61365      8.63374        -0.074257     -0.107481     -0.208427
Pb       3.86197      7.55374     13.01297        -0.062495      0.179724      0.564644
Pb      15.33231      7.63921     13.11357         0.414442     -0.015339     -0.298529
Pb       3.81279     11.58427      4.24708         0.089421     -0.306934      0.642377
Pb       3.97159     11.62611     17.40663        -0.711422     -0.449062      0.202841
Pb       0.09476     11.54824      4.34971        -0.496663      0.427219     -0.087938
Pb      15.26795     11.54253     17.32656         0.182567      0.035894      0.565609
Pb       3.87624     11.51573      8.62939         0.027999     -0.261355      0.001530
Pb      15.31584     11.45332      8.72075         0.280435      0.384040     -0.403333
Pb       3.92604     11.42025     13.11137        -0.231253     -0.031860     -0.241805
Pb       0.19773     11.55721     13.03478        -0.772532     -0.382928      0.141204
Pb       7.70794      3.77122      4.28680        -0.303793      0.026963      0.552363
Pb       7.69017      3.85708      0.02735         0.183233     -0.140492     -0.408241
Pb       7.68962     15.35562      4.41742        -0.181048      0.143607     -0.362187
Pb       7.52959      0.06442     17.31034         0.189957     -0.357531      0.276490
Pb       7.55170      3.88023      8.76229         0.285203     -0.419471     -0.547978
Pb       7.66054     15.29867      8.77632         0.309609     -0.103827     -0.250031
Pb       7.88416      3.91964     13.03344        -0.675050     -0.380126     -0.059472
Pb       7.69419      0.12136     13.00663        -0.265376     -0.123016     -0.111984
Pb       7.74289      7.53635      4.33363        -0.296644      0.074137     -0.208088
Pb       7.58889      7.78024     17.43397         0.074203     -0.217235     -0.180275
Pb       7.73201      7.64339      8.69630        -0.596689     -0.192121     -0.224045
Pb       7.66358      7.73298     13.06080        -0.655699     -0.297834      0.143052
Pb       7.64264     11.49326      4.33925        -0.043662     -0.208887     -0.082263
Pb       7.71342     11.56390     17.35241        -0.159128      0.174670      0.201384
Pb       7.58338     11.60482      8.59015        -0.085630     -0.218127      0.717333
Pb       7.79640     11.52428     12.97439        -0.710955      0.281362     -0.215504
Pb      11.44507      3.77021      4.30614        -0.040787      0.206169      0.083310
Pb      11.72721      3.90934      0.12579        -0.496107     -0.713685     -0.384991
Pb      11.59307     15.27123      4.36697        -0.518189     -0.162249     -0.336338
Pb      11.25969     15.25636      0.03967         0.539481      0.297319     -0.319651
Pb      11.42654      3.87378      8.67736        -0.243023     -0.309693     -0.475636
Pb      11.50050      0.03484      8.76692        -0.270863     -0.041178     -0.695990
Pb      11.58915      3.72114     13.03943        -0.575601     -0.348245      0.018556
Pb      11.52656     15.30853     13.06550        -0.178919      0.527869      0.149600
Pb      11.55392      7.56388      4.37434        -0.206396     -0.089362     -0.761600
Pb      11.49605      7.69885     17.40580         0.019906     -0.182802      0.378229
Pb      11.57003      7.72287      8.69902        -0.195992     -0.515778     -0.536092
Pb      11.34672      7.60776     13.13884         0.221965     -0.040590      0.068884
Pb      11.56840     11.43315      4.26814        -0.314657      0.252160     -0.212484
Pb      11.39849     11.42054     17.35979         0.078988      0.416023      0.054536
Pb      11.57750     11.43122      8.60446        -0.480399      0.597139     -0.021390
Pb      11.55561     11.47808     13.04259         0.348070      0.076165     -0.192135
Ti       1.90829      1.98307      2.24103         0.673979     -0.477869      0.171400
Ti       1.88257      1.90889     15.37660         0.386174     -0.172802     -0.242539
Ti       1.83105     13.41839      2.31901         0.290336      0.722481     -1.751755
Ti       1.82317     13.36035     15.42180         0.787588      0.315526     -0.666926
Ti      13.38654      1.85611      2.40190         0.116861      0.183856     -1.464387
Ti      13.43885      1.98649     15.33304        -0.760056     -1.309224      0.067061
Ti      13.42652     13.37080      2.29708         0.116736      0.495473     -1.485749
Ti      13.27183     13.47486     15.45300         0.408198      0.671238     -1.202579
Ti       1.81435      1.84755      6.81463         0.428749      0.379171     -1.092312
Ti       1.92069     13.41066      6.77074        -0.947174     -0.841949     -1.125873
Ti      13.37823      1.87534      6.63178        -0.484345      0.146784      1.275217
Ti      13.45019     13.41027      6.65951        -0.379481      0.514741      0.118284
Ti       1.87151      1.81825     10.92360         0.672839      0.466343      0.432844
Ti       1.85833     13.29248     10.91690         0.633210      1.598566     -0.252993
Ti      13.48085      1.86342     11.05284        -0.694787      0.150969     -0.737750
Ti      13.39498     13.48735     11.00276         0.195177     -1.323174     -1.379458
Ti       1.93550      5.79491      2.40929         0.261914     -1.550379     -2.159252
Ti       1.86297      5.71648     15.36342         1.275481     -0.243791     -0.035330
Ti      13.49862      5.70877      2.34172        -0.608152      0.935467      0.301646
Ti      13.43435      5.71541     15.36549         0.280728      0.419680     -1.482993
Ti       1.84909      5.67153      6.59805         1.004521      0.203553      0.326093
Ti      13.31278      5.75612      6.59451         0.375232     -0.128866     -1.428511
Ti       1.94136      5.66422     11.04874        -0.453498     -0.303230     -0.293697
Ti      13.35220      5.67045     11.20326         0.752043      0.290252     -1.522242
Ti       1.81660      9.60617      2.32671         0.211377      0.838766     -2.900363
Ti       1.81295      9.49993     15.49267         0.419008      0.734969      0.117501
Ti      13.33235      9.56689      2.30930        -0.288792     -0.364408      0.221480
Ti      13.34688      9.54882     15.32186         0.507039      0.480529      0.490463
Ti       1.80873      9.54533      6.70286         1.143348      0.726914     -0.009804
Ti      13.33938      9.63512      6.58510         0.758909     -0.980679     -1.374031
Ti       1.87900      9.50097     11.03015         0.184165     -0.113078     -0.402496
Ti      13.35720      9.44630     11.08264         0.185372      0.950096     -0.003148
Ti       5.73982      1.91021      2.26365        -0.614692     -0.969885      0.496075
Ti       5.67999      1.97634     15.43319         0.134498     -0.313478     -2.186112
Ti       5.74321     13.36835      2.32515         0.122123      0.864372     -0.618039
Ti       5.70401     13.48671     15.31683        -0.060122      0.551590     -0.296578
Ti       5.74314      1.80627      6.73781         0.543511      1.636067     -2.014358
Ti       5.70376     13.41924      6.60154         0.431803     -0.369314     -0.817226
Ti       5.71717      1.86936     10.92542        -0.098938      1.136200      0.020533
Ti       5.62512     13.41918     11.08127         1.544544     -0.053176     -1.280127
Ti       5.68411      5.70723      2.30285         0.761448      0.640166      0.681923
Ti       5.76795      5.81186     15.43142        -1.047274     -0.938004     -0.691998
Ti       5.70251      5.64903      6.70859         0.608854      0.627845     -1.632026
Ti       5.66485      5.67116     10.99985         0.960197     -0.074372      0.344876
Ti       5.63104      9.57812      2.31993         0.515828     -0.035280      0.042691
Ti       5.68675      9.65223     15.40766        -0.233347     -0.619465     -0.915949
Ti       5.71467      9.49931      6.59757        -0.363370      0.604800     -0.103650
Ti       5.70033      9.59011     11.05569         0.217874     -0.354393      0.165674
Ti       9.51070      1.84082      2.34295         1.180245     -0.152200      0.158735
Ti       9.61154      1.91148     15.51573         0.619415     -0.187810     -0.870951
Ti       9.51937     13.39838      2.34424         0.455296     -0.134946     -0.666759
Ti       9.48224     13.41383     15.24419         0.608945      0.719357      0.210206
Ti       9.53283      1.85259      6.69720         0.169518      0.402888     -0.633004
Ti       9.56378     13.34723      6.68183         1.012700      1.140910     -0.836629
Ti       9.57091      1.91255     10.95285         0.940876     -0.420924     -0.963645
Ti       9.59449     13.42789     11.01355        -1.360740      0.653732     -0.458261
Ti       9.56080      5.68858      2.24640         0.756316      0.520238     -0.229355
Ti       9.61632      5.72276     15.52009        -0.550277     -0.278582     -0.402544
Ti       9.55886      5.73623      6.62372        -0.673097     -0.800990     -0.245872
Ti       9.55823      5.74301     11.04312        -0.735375     -0.919245     -1.124201
Ti       9.45328      9.55340      2.33937         0.846896     -0.207208     -0.510730
Ti       9.53681      9.52685     15.34860        -1.075341      0.172321     -0.319150
Ti       9.47405      9.52199      6.65757         0.411363      0.707237     -0.957350
Ti       9.54728      9.55361     11.01899        -0.081957      0.334970     -0.039111
O       1.93242      1.93014      0.45400        -0.354628      0.222752      0.255251
O       1.98779      2.03431     13.58819        -0.456656     -0.968207      0.553022
O       1.70993     13.49668      0.50930         0.559000     -0.101511      1.128418
O       1.82258     13.22905     13.55680        -0.121821      0.598214      0.918202
O      13.44915      1.94547      0.58669         0.172578     -0.213140      1.425362
O      13.40071      1.93966     13.51259         0.099057      0.154751      0.576660
O      13.30824     13.43518      0.45537         0.420430      0.246038      0.026587
O      13.34260     13.59736     13.62907         0.359009     -0.598040      0.267545
O       1.84573      1.79940      4.99971         0.180363      0.323943      0.845079
O       1.80067     13.26737      4.94386         0.338220      0.433251      0.086317
O      13.39227      1.97013      4.90473        -0.008885     -0.382393     -1.389231
O      13.48023     13.34136      4.89812        -0.333468      0.137349     -0.467595
O       1.91211      1.84076      9.13640        -0.142600      0.011842     -0.154390
O       1.91171     13.34176      9.12910        -0.160131      0.012989     -0.029911
O      13.51250      1.87906      9.23378        -0.285556     -0.054701      0.693222
O      13.48333     13.44107      9.16589        -0.140730      0.040692      0.818194
O       1.87576      5.57336      0.52394         0.045088      0.639673      1.392392
O       2.03565      5.78068     13.59573        -0.842691     -0.015932     -0.229828
O      13.52189      5.84208      0.53250        -0.041775     -0.805791      0.448405
O      13.32845      5.71186     13.52111         0.303355     -0.176270      0.672828
O       2.05272      5.67409      4.81216        -0.646007      0.370460      0.745657
O      13.33304      5.65506      4.80672        -0.101523      0.450195      0.418346
O       1.92694      5.67021      9.26593        -0.240927      0.134134      0.617625
O      13.34890      5.83177      9.32573        -0.071099     -0.259142      0.921140
O       1.81416      9.61110      0.48252        -0.009805     -0.189261      1.543550
O       1.71472      9.55616     13.70500         0.225288      0.126422      0.042743
O      13.28459      9.49578      0.54798        -0.126063      0.031794     -0.672975
O      13.27978      9.58745     13.57366         0.307407     -0.195369     -0.218550
O       1.81633      9.59498      4.90564        -0.012659     -0.197287     -0.193533
O      13.28577      9.61041      4.75892         0.340814      0.062027      0.813293
O       1.94688      9.57295      9.25717        -0.561922     -0.205832      0.105128
O      13.22205      9.39705      9.24329         0.682994      0.394601      1.268673
O       5.64550      1.85607      0.46329         0.402796      0.457081      0.832057
O       5.61392      1.77414     13.56849         0.478065      0.680023      1.512573
O       5.79160     13.29292      0.49905         0.071879      0.266215      1.186713
O       5.72489     13.53160     13.52050        -0.233909     -0.346232      0.654242
O       5.80278      1.82378      4.87278        -0.371010     -0.038276      0.967021
O       5.72184     13.33346      4.79622        -0.016420      0.482639      1.014327
O       5.69827      1.91485      9.11219         0.132669     -0.015267      0.465131
O       5.78128     13.33345      9.23170        -0.521217      0.313018      0.964117
O       5.64043      5.84739      0.53175         0.044471     -0.445845      0.266234
O       5.62811      5.68230     13.66264         0.835322      0.510365      0.063222
O       5.72609      5.78343      4.85324        -0.471528     -0.047982      1.214714
O       5.79968      5.56512      9.23809        -0.120440      0.274313     -0.611517
O       5.65415      9.57402      0.51196         0.349352      0.126160      0.643805
O       5.60557      9.61203     13.56341         0.464164      0.183473      1.325615
O       5.67707      9.55293      4.79930        -0.053478     -0.360142      1.311675
O       5.71342      9.67852      9.32331        -0.065521      0.061251     -0.324791
O       9.49025      1.76026      0.59349         0.047536      0.160315     -1.049627
O       9.70317      1.85541     13.70858        -0.339024      0.449927      0.493463
O       9.57416     13.37713      0.50610        -0.127276      0.085469      0.908722
O       9.57722     13.59240     13.47058        -0.296523     -0.553762     -0.021666
O       9.60249      1.86482      4.87102        -0.031143     -0.219710      0.612466
O       9.70446     13.44398      4.85812        -0.298770     -0.339079      0.967828
O       9.63536      1.92832      9.14479        -0.115763      0.161456      0.360028
O       9.35336     13.50883      9.24927         0.865783     -0.444590      0.338872
O       9.67372      5.65953      0.43437        -0.442280      0.165983      0.740261
O       9.51816      5.76008     13.68750         0.002733     -0.516352      0.793296
O       9.71422      5.72765      4.85839        -0.428408      0.385545     -0.386723
O       9.45293      5.61941      9.19059         0.403582      0.520816      1.409322
O       9.47763      9.50619      0.51911         0.079756      0.137050      0.195901
O       9.52751      9.45836     13.57354        -0.064143      0.340179      0.074968
O       9.46756      9.48067      4.85379         0.474748      0.234960      1.012197
O       9.52443      9.46433      9.23425         0.362306      0.112234      0.554308
O       3.81182      1.93086      2.75366         1.022028      0.050476     -0.126887
O       3.83497      2.07182     15.73054        -1.158003     -0.987394      0.442589
O       3.79034     13.21831      2.63610         0.286905      0.664907     -0.117155
O       3.83662     13.44170     15.90189        -0.050806     -0.518574     -0.791112
O       0.08859      1.92318      2.80471        -0.961622     -0.027564     -0.247705
O      15.30807      1.83999     15.70662         0.524735     -0.221171      0.073477
O      15.35907     13.43391      2.71850         0.032010      0.334778      0.337054
O      15.34439     13.44930     15.81625        -1.270788      0.326195     -0.410261
O       3.83231      1.95563      7.13335        -0.840075     -0.205688     -0.206905
O       3.82630     13.42262      6.97363         0.031602     -0.026910      0.310358
O      15.24386      1.90535      7.07026         0.596760     -0.420860      0.088774
O      15.32329     13.52206      7.04690        -0.141553     -0.409590      0.465833
O       3.82757      1.80866     11.42264        -0.317835      0.317309     -0.595262
O       3.75939     13.45810     11.36594         0.131796     -0.353500      0.030855
O       0.04382      1.89168     11.44105        -0.610227      0.094569      0.084962
O      15.35320     13.35471     11.21737        -0.523588      0.573617      0.819730
O       3.86336      5.60546      2.79074        -0.376056      0.736850     -0.240963
O       3.76900      5.76413     15.76666        -0.124795      0.496262      0.611160
O       0.10332      5.81369      2.76067        -1.243363     -0.382589      0.098410
O      15.33111      5.81584     15.67899        -0.000264     -0.537432      0.276107
O       3.83536      5.80177      7.06295        -0.872414     -0.572339      0.001990
O      15.31358      5.74739      6.91665        -0.154913      0.199329      0.450120
O       3.85708      5.80500     11.53860        -0.890639     -0.393937     -0.981302
O      15.29381      5.49902     11.38626         0.262178      1.046289      0.220681
O       3.75644      9.71790      2.71362        -0.031357     -0.050325     -0.103346
O       3.80096      9.60965     15.79494        -0.214215      0.005424     -0.170301
O      15.22848      9.52320      2.60484         1.461434     -0.373206      0.701032
O      15.24530      9.72362     15.82439        -0.208391     -0.865568     -0.340681
O       3.78311      9.56210      7.15060         0.212139      0.134156     -0.655266
O      15.33170      9.52604      7.05370        -0.876027      0.000366      0.291883
O       3.74627      9.57228     11.49685         0.343069      0.026712     -0.146776
O      15.33319      9.50303     11.42507        -1.388490      0.313703     -0.203976
O       7.71184      1.89981      2.73633        -2.085172     -0.253788     -0.018326
O       7.59570      1.91387     15.76118         0.411629      0.326958      0.304577
O       7.66717     13.33700      2.79003         0.045312      0.695788     -0.286174
O       7.65847     13.51934     15.75001        -0.538024     -0.396026     -0.283854
O       7.65902      1.78014      6.97324        -0.429570      0.379288      0.547084
O       7.67599     13.40430      7.08979        -0.969001      0.176732     -0.567184
O       7.75281      2.07856     11.26332        -2.034084     -0.075332      0.548989
O       7.60203     13.35762     11.36162         0.382242      0.033672      0.606764
O       7.62341      5.70224      2.70257         0.064831      0.359438     -0.340431
O       7.62964      5.63982     15.98452         0.398996      0.353295     -0.657003
O       7.61359      5.86771      6.84663         0.456320      0.074630      0.910395
O       7.64828      5.69401     11.44437         0.219331     -0.740340      0.146115
O       7.65284      9.54327      2.80881        -1.211356     -0.454913     -0.432195
O       7.61589      9.52835     15.75314        -0.421225      0.409445      0.128311
O       7.60526      9.67030      7.00157        -0.165573     -0.643613      0.018898
O       7.67606      9.70751     11.48979        -0.429403     -0.549810     -0.210982
O      11.44201      1.92256      2.69257         1.372353     -0.394376      0.086339
O      11.55913      1.93569     16.01883        -0.446954      0.619335     -0.618360
O      11.58856     13.41036      2.57237        -1.216686     -0.000704      0.878514
O      11.39696     13.47662     15.61907         0.029934     -0.298684      0.611528
O      11.46485      1.85374      7.16321         0.181305      0.641773     -0.250519
O      11.52321     13.30804      7.09100        -0.710962      0.219375      0.144157
O      11.52917      1.76121     11.38574         0.180742      0.258232     -0.060413
O      11.49959     13.68560     11.22603        -0.793747     -0.476404      0.296859
O      11.46084      5.77988      2.61536         0.632494     -0.716682      0.031241
O      11.57063      5.76618     15.81638        -0.870201     -0.249184      0.000945
O      11.43750      5.77687      7.00327         0.541326     -0.085325      0.574495
O      11.41260      5.68869     11.54103         0.339852      0.640190     -0.474013
O      11.40781      9.61793      2.63304         0.485822      0.041639      0.388973
O      11.36394      9.49943     15.69838         1.539237     -0.132105      0.457536
O      11.52705      9.64871      6.99687        -0.971642     -0.250488      0.260923
O      11.41523      9.56487     11.55679         0.766243     -0.719706     -0.598075
O       1.96275      3.85264      2.74990        -0.394000     -0.500329      0.080672
O       1.86136      3.77829     15.61926        -0.574078      0.726261      0.801530
O       2.09425      0.05696      2.69452        -1.018176     -0.984445      0.099860
O       2.01179     15.27979     15.83473        -0.748088      0.991890     -0.739549
O      13.40607      3.80092      2.69235         0.416837      0.185661     -0.003512
O      13.62492      3.87335     15.73389        -0.956521     -0.341975      0.364749
O      13.58805     15.30257      2.79120        -0.844095      0.952583     -0.180108
O      13.27294      0.09550     15.58701         0.750951     -1.246622      0.829145
O       1.78842      3.79723      7.07908         0.380307      0.477873     -0.112862
O       1.93258     15.25931      7.02445        -0.061557      1.439262      0.408201
O      13.36827      3.86268      6.88891        -0.070013     -0.275069      1.141908
O      13.24781     15.33386      7.00130         0.672720      0.006191      0.086338
O       1.99359      3.72896     11.37452        -0.024723      0.894937      0.007299
O       1.94269     15.35651     11.37203        -0.811619     -0.987656     -0.076217
O      13.38759      3.74013     11.39206        -0.421238      0.764735      0.187135
O      13.49903     15.35451     11.43834         0.533594     -0.326422      0.103845
O       2.00966      7.68544      2.61376        -0.092773      0.327918      0.630516
O       1.72480      7.63167     15.84446         0.659549      0.843235     -0.178386
O      13.43882      7.59384      2.65827        -0.313501      0.490485      0.489351
O      13.48191      7.59755     15.78751        -0.467850      1.544212     -0.212337
O       1.86333      7.61920      7.11498        -0.023660      0.015319     -0.395329
O      13.35985      7.67124      6.85512         0.039874      0.220949      0.739801
O       1.81656      7.60522     11.43446        -0.000880     -0.146241      0.007496
O      13.34900      7.62716     11.60213         0.101764      0.226608     -0.700459
O       1.72598     11.52174      2.58985         0.340215     -0.708233      0.622778
O       1.85634     11.55035     15.80996         0.137240     -0.717229      0.092093
O      13.51287     11.51887      2.49933        -0.425301     -0.809055      0.770116
O      13.30574     11.48492     15.66243        -0.362292      0.182762      0.313069
O       1.81609     11.48344      7.05768        -0.024343     -0.572581      0.464396
O      13.44414     11.48986      6.88365         0.325670     -0.422966      1.092072
O       1.80519     11.49493     11.26273         0.335381     -1.203301      0.585845
O      13.23924     11.60930     11.39942         0.271878     -1.037510     -0.059792
O       5.72735      3.80339      2.72478         0.346754     -0.462762     -0.508664
O       5.55792      3.90483     15.77064         1.258215     -0.640580      0.375515
O       5.79872     15.28554      2.66955        -0.411574      0.528119     -0.061409
O       5.63236      0.00840     15.79503         0.340812     -0.146606      0.006880
O       5.83481      3.79049      6.97082        -0.342242      0.563169      0.393032
O       5.66622      0.00531      7.02579         0.102958     -1.848228      0.190543
O       5.58340      3.76218     11.29154         0.436798      0.447756      0.325720
O       5.71666      0.07284     11.32745         0.563237     -1.704114      0.113826
O       5.53755      7.69653      2.69735         0.575536     -0.396424     -0.244961
O       5.68637      7.68522     15.83121         0.277109      0.520665     -0.102568
O       5.70592      7.69001      7.28767         0.371939      0.333410     -1.065155
O       5.79650      7.60420     11.27855        -0.069967      1.010718      0.472676
O       5.84961     11.49987      2.76099        -0.473799     -0.770103     -0.214190
O       5.75535     11.59359     15.80493         0.058211     -0.902741     -0.575301
O       5.66473     11.55735      6.95536         0.218115     -1.005033      0.307447
O       5.67942     11.51686     11.47732        -0.276696     -0.121479      0.216361
O       9.49582      3.77705      2.71045         0.506205      0.736907     -0.270320
O       9.59837      3.76783     15.92875        -0.194357      0.913854     -0.202231
O       9.58845     15.30178      2.76143         0.038684     -0.399807     -0.082029
O       9.53358     15.35762     15.73753         0.158341     -0.469615      0.475532
O       9.46938      3.84832      6.85563         0.377940     -0.191436      0.901258
O       9.46417     15.32852      7.07371         0.888047     -0.834704      0.091817
O       9.72343      3.76629     11.39384        -0.343890      1.364173      0.484682
O       9.36467      0.06480     11.30824         0.496376     -1.162325      0.204445
O       9.58224      7.58763      2.70473        -0.410633      0.268224     -0.102982
O       9.41520      7.62174     15.70095         0.585614     -0.247169      0.509612
O       9.56873      7.67294      7.08714        -0.052877      0.504503     -0.032642
O       9.38040      7.61373     11.56075         1.221006      0.245547     -1.046104
O       9.42800     11.48089      2.59788         0.814540      0.005945      0.453520
O       9.54115     11.48138     15.67969        -0.114665      0.371390     -0.086109
O       9.54555     11.48066      7.09474         0.218982     -0.348006     -0.039227
O       9.65610     11.45972     11.41200         0.030041      0.971541     -0.040369
