  # total energy = -7876.10804231 
CRSYTAL
PRIMVEC
    15.2000000000000000    0.0000000000000000    0.0000000000000000
     0.0000000000000000   15.2000000000000000    0.0000000000000000
     0.0000000000000000    0.0000000000000000    17.000000000000000
PRESSURE
6.77352 7.5558 2.31314 0.145893 -0.177409 -0.032886
PRIMCOORD
320 1
Pb       3.67958      3.81213      4.28263         0.647424      0.084782     -0.125377
Pb       3.86394      3.84996     16.99049         0.286178     -0.235650     -0.371165
Pb       3.69225      0.10949      4.24491         0.584437     -0.684044      0.553743
Pb       3.80606     15.17909     16.93007         0.719089     -0.081638      0.237194
Pb       0.04081      3.82472      4.21123        -0.063862     -0.092004      0.256890
Pb       0.09822      3.89447     16.95624         0.075067     -0.729322     -0.097890
Pb      15.16582      0.10803      4.39192        -0.284246     -0.457806     -0.576201
Pb       0.03129     15.14150     16.96565        -0.118555     -0.009439     -0.042166
Pb       3.86197      3.84168      8.37504        -0.053544     -0.244090      1.020692
Pb       3.80945     15.10396      8.61400        -0.122529      0.097875     -0.433215
Pb       0.09079      3.66385      8.58037        -0.441967      0.805459     -0.090614
Pb      15.03389     15.17134      8.47363         0.197948     -0.200675     -0.425095
Pb       3.83521      3.64595     12.60107        -0.281851      0.940215      0.862991
Pb       3.81203      0.06713     12.80569        -0.437271     -0.856982      0.268344
Pb      15.14810      3.81044     12.68232         0.384227      0.506854      0.797750
Pb       0.03411      0.01051     12.79694        -0.042059     -0.703462      0.523344
Pb       3.73178      7.61153      4.30091         0.433674      0.030831     -0.594224
Pb       3.73482      7.61996     16.96275         0.581682     -0.278143      0.020858
Pb      15.12781      7.70052      4.30957         0.106405     -0.181672     -0.320979
Pb      15.08802      7.50312     16.92984         0.755711      0.200895      0.015191
Pb       3.82072      7.57766      8.39079        -0.117737      0.129197      0.404417
Pb      15.09590      7.54413      8.49104         0.527286      0.497366     -0.282336
Pb       3.69621      7.52618     12.70282         0.428525     -0.216969      0.069801
Pb       0.01831      7.52966     12.79735        -0.065961      0.028102     -0.843136
Pb       3.62923     11.39771      4.29470         1.070364      0.473915     -0.320652
Pb       3.95300     11.39339      0.10157        -0.675078      0.453415     -0.140166
Pb       0.02364     11.41560      4.19491        -0.828214      0.100484      0.728021
Pb       0.06703     11.32928     16.87174        -0.263588      0.748227      0.844249
Pb       3.69554     11.37585      8.54710         0.400442     -0.069075     -0.301345
Pb      15.16845     11.35051      8.58137        -0.132455      0.241308     -0.556689
Pb       3.75207     11.28109     12.66053        -0.097147      1.340134      1.022755
Pb      15.14424     11.14854     12.89711         0.019710      1.231664     -1.149468
Pb       7.55520      3.81673      4.25912         0.484185     -0.229460     -0.179060
Pb       7.61325      3.78173      0.07909        -0.583580      0.314242     -0.669139
Pb       7.56973     15.11794      4.21705        -0.103893      0.516628      0.471069
Pb       7.66526     15.12958     16.96760        -1.003842      0.185065     -0.437105
Pb       7.65138      3.63113      8.47148        -0.483319      1.054705     -0.113846
Pb       7.62067      0.04642      8.53186         0.100754     -0.701916     -0.479981
Pb       7.66822      3.72142     12.75020        -0.590871      0.794462      0.093297
Pb       7.57728     15.13505     12.78157         0.426257      0.337497      0.734466
Pb       7.64669      7.48924      4.13406        -0.020845      0.650995     -0.128413
Pb       7.65865      7.67099      0.05769        -0.600365     -0.967620     -0.133009
Pb       7.57471      7.61160      8.37405        -0.218468      0.063566     -0.024965
Pb       7.54549      7.65339     12.65422        -0.284489     -1.026468      0.826179
Pb       7.51968     11.35843      4.28533         0.034952      0.432998     -0.211848
Pb       7.53248     11.42836     16.96619         0.360595      0.106782      0.350246
Pb       7.61906     11.43083      8.59769        -0.409218     -0.087516     -0.666663
Pb       7.65375     11.39060     12.69170        -1.118934     -0.603863      0.868253
Pb      11.35145      3.94646      4.13918        -0.061535     -0.798845     -0.021718
Pb      11.32418      3.66818     16.95361         0.057676      0.576904      0.123712
Pb      11.45182     15.16726      4.19085        -0.076898      0.153972     -0.197163
Pb      11.39736      0.01410     16.97854        -0.189912     -0.316138      0.188562
Pb      11.42121      3.78269      8.47504         0.107190     -0.113239     -0.117001
Pb      11.36434      0.00955      8.48652         0.021134     -0.034420     -0.486738
Pb      11.31485      3.64473     12.73215         0.106990      0.910352      0.355654
Pb      11.39577      0.01953     12.65267        -0.600166     -0.482527      0.874833
Pb      11.42872      7.49715      4.15886         0.218098      0.702378     -0.149131
Pb      11.39724      7.60436     16.95068        -0.161843     -0.337589      0.132780
Pb      11.34880      7.54836      8.61840        -0.027886      0.215993     -0.642476
Pb      11.39526      7.65523     12.86672        -0.316594     -0.810774     -0.627278
Pb      11.36701     11.33219      4.21133         0.116696      0.219843     -0.174136
Pb      11.44173     11.40150     16.81588        -0.287198      0.077412      0.570431
Pb      11.38166     11.35433      8.50125        -0.570587      0.667870      0.063739
Pb      11.29881     11.22189     12.57472         0.440492      0.964395      0.048708
Ti       1.87356      1.97470      2.25326         1.167012     -0.892079     -0.732148
Ti       1.93223      1.85647     15.05525         0.166365      0.441913     -0.619871
Ti       1.73992     13.42321      2.34077         1.209128     -0.930405      0.152020
Ti       1.88105     13.23938     14.94635         0.309309      1.303784     -0.229263
Ti      13.31065      1.93023      2.20378        -0.083205     -1.164491      0.424904
Ti      13.31843      1.86530     14.97838         0.138990      0.102606      0.172751
Ti      13.21436     13.23363      2.15740        -0.171393      0.832879      0.352288
Ti      13.17284     13.35391     14.82142         0.956680     -0.461820     -0.559657
Ti       1.90647      1.83815      6.57201        -0.135694      0.597372      0.517690
Ti       1.86076     13.33604      6.44218        -1.304685     -0.643267      0.729110
Ti      13.32892      1.96882      6.38728        -0.366030     -0.698814      0.158704
Ti      13.21450     13.28524      6.40703         0.337255      0.038866      0.389915
Ti       1.81811      1.86307     10.77707         0.553585     -0.061310     -0.867300
Ti       1.78224     13.33134     10.65060         0.468202     -1.407942      0.406631
Ti      13.32163      1.94979     10.89250        -0.605957     -0.091898     -1.264672
Ti      13.22108     13.38303     10.67507         0.122457     -0.924004      0.641603
Ti       1.93237      5.76893      2.17020         0.992666      0.719002      0.284301
Ti       1.94433      5.63372     14.81367         0.127099     -0.191334      0.460057
Ti      13.42941      5.62259      2.14725        -1.031464      1.168407      0.425014
Ti      13.26224      5.56450     14.93583         0.034315      0.336989     -0.033175
Ti       1.92704      5.69808      6.49920        -0.190018      0.202682      0.115692
Ti      13.31606      5.67262      6.48575        -0.005588      0.638871      0.252056
Ti       1.82870      5.67841     10.63253         1.209237      0.433213      0.550587
Ti      13.22560      5.78980     10.66082        -0.011453     -0.441859      0.438082
Ti       1.96086      9.57844      2.27684         0.094092     -1.943506      0.012728
Ti       1.89151      9.44735     14.98349         0.793936      0.849330     -0.105130
Ti      13.35699      9.50644      2.17965        -0.659964     -0.553293      0.750972
Ti      13.29012      9.48655     14.95657        -0.627954     -0.474754      0.045628
Ti       1.85655      9.52077      6.44357        -0.404943     -1.062026      0.735099
Ti      13.16989      9.53221      6.54301         0.478598     -0.489609     -0.290699
Ti       1.84868      9.50955     10.67327        -0.499020      0.185124      0.641688
Ti      13.21538      9.49675     10.66949         0.553067      0.472392     -0.017957
Ti       5.74389      1.98402      2.30898        -0.488418     -1.877660     -0.732653
Ti       5.76557      1.92011     14.85897        -0.830964     -0.356825      1.281294
Ti       5.62223     13.37161      2.34034        -0.653858     -0.061370     -1.079830
Ti       5.66714     13.18182     14.93014        -0.189884      1.464574      1.153427
Ti       5.69921      1.77641      6.51451        -0.198359      0.746119     -0.204819
Ti       5.63021     13.28761      6.50812         0.581436     -0.475242     -0.744266
Ti       5.69760      1.83527     10.73984         0.225381      0.459947      0.502899
Ti       5.64634     13.31446     10.79655        -0.457101     -1.309362     -0.039648
Ti       5.69124      5.70241      2.18257        -0.128551      0.157059     -0.612713
Ti       5.68720      5.67452     14.89792         0.785694      0.148683     -0.129534
Ti       5.70114      5.64933      6.33768        -0.078642      0.110545      1.150449
Ti       5.59506      5.67873     10.70872         0.570235     -0.734240      0.229320
Ti       5.83248      9.51374      2.17985        -1.440020     -0.403316      0.542250
Ti       5.68530      9.45851     15.07666        -0.264214     -0.941769      0.100763
Ti       5.66157      9.49680      6.36965         0.280971      0.112601      0.313676
Ti       5.59953      9.42428     10.76474        -0.363338      0.792394     -0.827688
Ti       9.47421      1.82221      2.20840         0.378886      1.121724      0.534874
Ti       9.49039      1.90127     15.02049        -0.745256     -0.925395     -0.355508
Ti       9.40124     13.30011      2.17035         0.733161     -0.807910      0.483062
Ti       9.47053     13.23644     14.92330        -0.720115      0.902535     -0.121573
Ti       9.56644      1.96718      6.38018        -0.057306     -1.063465     -0.210594
Ti       9.45096     13.37232      6.39101        -0.656867     -0.540914      0.677965
Ti       9.46285      1.85548     10.70332        -0.086382      0.408329      0.462945
Ti       9.41144     13.27061     10.79027         0.157303      0.220440      0.165879
Ti       9.53743      5.67662      2.12181        -0.113304     -0.299779     -0.197429
Ti       9.43725      5.75529     14.92801        -0.807478     -0.214495      0.712437
Ti       9.52800      5.76820      6.43731        -0.325442      0.088511      0.784555
Ti       9.39746      5.65519     10.65812        -0.133967      0.995260      0.166647
Ti       9.60632      9.54504      2.12290        -0.422565     -0.753584      0.314448
Ti       9.45505      9.44172     14.97031        -0.211537     -0.596547      0.422241
Ti       9.43936      9.59062      6.36540        -0.388346      0.249398      1.710937
Ti       9.39826      9.37618     10.69859        -0.389674      0.349554     -1.117008
O       1.95011      1.76408      0.46811        -0.453431      0.309130      0.627926
O       1.91075      1.79330     13.26208        -0.062185      0.094709      0.090737
O       1.83491     13.48097      0.55757        -0.025630     -0.421279      0.123069
O       1.83048     13.30175     13.18283        -0.063497     -0.180999      0.579898
O      13.38630      1.88883      0.43522        -0.253123      0.072060      0.293995
O      13.26270      1.94884     13.17281        -0.305243      0.132476      0.613266
O      13.17040     13.15548      0.37244         0.263589      0.353486      0.386921
O      13.18095     13.38722     13.01113         0.032693     -0.590115      1.804125
O       1.84713      1.84877      4.78554        -0.142457      0.521654      0.030422
O       1.67954     13.26118      4.63650         0.461180     -0.044893      1.226599
O      13.36988      1.93650      4.60562        -0.106948      0.277723      0.545690
O      13.06632     13.26741      4.60405         0.573715     -0.282161      1.191961
O       1.65568      1.87204      8.93505         0.603676     -0.295361      1.953807
O       1.89374     13.20469      8.83801        -0.232533      0.460884      1.211574
O      13.35118      1.97042      9.08426        -0.092781     -0.493063      0.826624
O      13.12848     13.50203      8.86230         0.283459     -0.135021      1.143343
O       1.98204      5.84581      0.37912        -0.476163     -0.497041      0.701570
O       1.81046      5.72509     13.02728         0.177256      0.000041      0.893961
O      13.62465      5.58977      0.36821        -0.902148      0.327956      0.599398
O      13.18679      5.55299     13.14573         0.485939      0.458285      0.666907
O       2.04595      5.67664      4.67333        -0.492798      0.002955      1.020497
O      13.10780      5.74865      4.68373         0.732377     -0.423430      0.820870
O       1.90554      5.67525      8.84775         0.097046      0.020811      0.691815
O      13.39046      5.86591      8.86050        -0.674701     -0.740502      1.298746
O       1.86295      9.56831      0.49665        -0.194170     -0.130225     -0.099666
O       1.73958      9.66030     13.16972         0.263023     -0.892103      1.165507
O      13.37177      9.40353      0.39373        -0.141212      0.316207     -0.192649
O      13.23625      9.46163     13.16371         0.179660      0.047412      0.267528
O       1.75982      9.37338      4.63894         0.327706      0.464381      0.850983
O      13.11868      9.52075      4.71543         0.504856     -0.038693      1.128689
O       1.89170      9.64467      8.91079         0.123159     -0.292893      0.115684
O      13.20941      9.47123      8.87825        -0.476003     -0.148240      0.899175
O       5.80003      2.14377      0.52320        -0.328482     -0.549940      0.505386
O       5.68410      1.89104     13.07825         0.051685      0.252431      0.305383
O       5.61964     13.28940      0.46884         0.289891     -0.044376      1.505813
O       5.62597     13.15220     13.20692         0.189240      0.215844     -0.665388
O       5.66642      1.73395      4.72645         0.116957      0.434516      1.018253
O       5.63580     13.26490      4.67834         0.187315      0.363548      1.324956
O       5.79449      1.72473      8.96267        -0.254132      0.389717      0.617486
O       5.76764     13.29566      8.98200        -0.502741      0.338136      1.143020
O       5.72442      5.53710      0.33472        -0.321350      0.164633      2.240792
O       5.65054      5.69651     13.08518         0.110598     -0.283593      1.206714
O       5.54686      5.58344      4.57114         0.619822      0.352558      0.661651
O       5.49302      5.73881      8.93056         0.593402     -0.100182      0.384958
O       5.71774      9.41226      0.35034        -0.143892      0.522958      1.845828
O       5.62019      9.55488     13.32809         0.118023     -0.317619     -0.464874
O       5.82271      9.44742      4.56350        -0.240710      0.351294      1.311096
O       5.49983      9.52766      8.96945         0.147408     -0.442475      1.127511
O       9.36719      1.85276      0.38556         0.449307      0.205391      0.786181
O       9.60898      1.76968     13.22968        -0.463997      0.697633      0.348243
O       9.39213     13.18196      0.36821         0.160418      0.294253      0.858323
O       9.40237     13.40887     13.12512         0.620225     -0.726771      1.371486
O       9.63940      1.81360      4.61294        -0.302368      0.547357      0.972295
O       9.43863     13.35852      4.61014         0.295743     -0.326303      0.705191
O       9.43400      1.95347      8.91120         0.284893      0.170839      0.575756
O       9.15580     13.23125      9.05023         0.923727      0.503813     -0.046209
O       9.46015      5.53682      0.34484         0.460470      0.444609      0.774406
O       9.39297      5.98400     13.14411         0.417827     -0.977020      1.047887
O       9.62693      5.83607      4.63914        -0.328387     -0.668218      1.088858
O       9.34024      5.71361      8.84228         0.319823      0.021510      0.685660
O       9.68912      9.45917      0.32489        -0.374756      0.262114      1.014394
O       9.41548      9.29370     13.18262         0.285031      0.358003      0.076952
O       9.39869      9.63186      4.61048         0.265409     -0.426892      0.013917
O       9.34936      9.39929      8.87753         0.280829      0.100016      1.885746
O       3.76213      1.81884      2.74462        -0.213864      0.772930     -0.815819
O       3.82556      1.91618     15.35359         0.453143      0.273300     -0.095953
O       3.68539     13.34764      2.86444         0.244582     -0.463503     -1.135799
O       3.86325     13.23274     15.40179        -1.317351      0.168479     -0.144600
O       0.08049      1.89744      2.72546        -1.256662      0.525772     -0.401803
O      15.15034      1.72244     15.35445         0.391755      0.089217     -0.297875
O      15.07107     13.24661      2.65765         0.219137     -0.040629     -0.449282
O      15.08128     13.26952     15.24314         0.267481      0.301394      0.096835
O       3.73967      1.71889      7.02908         0.613536      0.250566     -0.584465
O       3.66247     13.49684      6.88002         1.395904     -0.568462     -0.240012
O      15.13358      2.05958      6.99793         0.357483     -1.072406     -1.175463
O      15.18709     13.15205      6.94631        -0.845510      0.664654     -0.700135
O       3.76451      1.78051     11.17774        -0.430011     -0.245643     -1.016615
O       3.67677     13.39880     11.09546         1.283264     -0.160849     -0.508493
O      15.18572      1.86463     11.39834         0.061684      0.085549     -1.356307
O      15.09033     13.20313     10.96325         0.309516      0.611420     -0.202406
O       3.86242      5.61815      2.57879        -1.163910     -0.135080     -0.377733
O       3.81963      5.61633     15.32912        -0.955639      0.003738     -0.349575
O       0.07772      5.61989      2.61870        -0.822276      0.401382     -0.111546
O       0.13713      5.61443     15.29310        -1.090090      0.299414     -0.229063
O       3.86729      5.69155      6.87236        -1.455038     -0.043983     -0.490843
O       0.04450      5.73072      6.83701        -0.676590     -0.536014     -0.665352
O       3.77158      5.59192     11.21269        -1.296974      0.269317     -0.700708
O       0.01276      5.79990     11.04699        -0.904756     -0.022956      0.008830
O       3.86084      9.51396      2.67297        -0.440270      0.465481     -0.448221
O       3.74647      9.52420     15.48556        -0.206570      0.092490     -0.588725
O      15.15673      9.50889      2.73349         0.062899     -0.245780     -0.735190
O      15.18223      9.62233     15.30124         0.116944     -0.487407     -0.256050
O       3.74794      9.41728      6.79530         0.122011      0.394968     -0.566522
O      15.01409      9.48591      7.01665         1.285089      0.488909     -1.046925
O       3.68670      9.54079     11.30572         1.069710     -0.874339     -1.316222
O      15.09432      9.53000     11.04797         0.619100     -0.206262      0.079522
O       7.64783      1.94392      2.80520        -0.326901     -0.452425     -0.707647
O       7.57314      1.86697     15.29946         0.765805     -0.043778     -0.058310
O       7.56769     13.31780      2.73133         0.031261      0.188116     -0.920198
O       7.54467     13.20139     15.39840         0.934166      0.054265     -0.398248
O       7.62425      1.98119      6.89935        -0.011814     -0.388167     -0.878653
O       7.52519     13.24130      6.87728         0.311424      0.384259     -0.595566
O       7.60868      1.98098     11.21685        -0.091004     -0.305219     -0.825866
O       7.60256     13.22818     11.39119        -1.234440      0.612555     -1.369084
O       7.56993      5.68008      2.59386         0.291922     -0.148457     -0.028128
O       7.60090      5.79550     15.40458         0.467670     -0.341721     -0.743988
O       7.53911      5.67970      6.79221         0.917064     -0.009252     -0.557391
O       7.48175      5.60585     11.11206         0.914876      0.080687     -0.487935
O       7.67949      9.34203      2.53065        -0.987823      0.339652     -0.465296
O       7.58170      9.36379     15.48133         0.223941      0.651583     -0.778751
O       7.51496      9.59004      6.94417        -0.599773     -0.240818     -0.976558
O       7.46366      9.44874     11.11110         0.356154      0.006268     -0.338188
O      11.41269      1.85644      2.53664        -0.330602      0.550245     -0.511601
O      11.36291      1.85726     15.47394         0.569372      0.487559     -0.327664
O      11.31659     13.30940      2.55178        -0.292850     -0.186255     -0.321229
O      11.31083     13.29818     15.34406         0.111277     -0.399306     -0.306212
O      11.48683      1.87087      6.92142        -1.060900      0.225444     -0.228023
O      11.29666     13.38970      6.92687         0.210439     -0.314287     -0.455152
O      11.30694      1.92390     11.20132         1.113386      0.093824     -0.888947
O      11.28541     13.31675     11.10938         0.377198     -0.115037     -0.457890
O      11.44625      5.67284      2.47103         0.026783     -0.124456     -0.280203
O      11.39502      5.73754     15.34877         0.279122     -0.553786     -0.222369
O      11.44076      5.70370      7.04571        -1.364348      0.212944     -0.904313
O      11.35374      5.78386     10.92657         0.192854     -0.278960     -0.249773
O      11.41998      9.46383      2.61215        -0.149974      0.207674     -0.463004
O      11.40231      9.25807     15.28592         0.561765      0.398234     -0.381458
O      11.28165      9.63630      6.95649         0.297800     -0.708261     -0.702939
O      11.26533      9.30830     11.08527         0.599670      1.070241     -0.105571
O       1.93348      3.86445      2.53490        -0.073085     -0.965168      0.113105
O       1.84502      3.75151     15.34088         0.377820      0.263389     -0.228232
O       1.78570     15.17236      2.85048        -0.140362      1.297647     -0.928167
O       2.00589     15.18936     15.43581        -0.695142     -0.981457     -0.394634
O      13.23393      3.81878      2.68479         0.879839     -0.073406     -0.559869
O      13.40938      3.71967     15.48205        -0.615360      0.293074     -0.662777
O      13.28625      0.03642      2.58998         0.274634     -0.537567     -0.311681
O      13.08532     15.18738     15.33205         0.638057     -0.342604     -0.327734
O       1.98390      3.77816      6.94200        -0.336515      0.335241     -0.762600
O       1.74840      0.00017      6.89622        -0.625548     -0.257641     -0.301179
O      13.24834      3.77585      6.91366        -0.008146      1.082519     -0.401699
O      13.28779     15.17890      6.67738         0.502300      0.583759      0.376368
O       1.81178      3.77140     11.11755         0.037039     -0.479935     -0.564091
O       1.81058     15.16612     11.22118        -0.358342      0.508029     -0.895550
O      13.35845      3.83627     11.12768        -0.436840      0.421623     -0.415188
O      13.24521      0.05003     11.24090         0.293273     -0.217770     -1.202397
O       1.94814      7.62336      2.67735        -0.314965     -0.508956     -0.442056
O       1.92153      7.61995     15.20636        -0.266981     -0.318483     -0.159713
O      13.26989      7.56143      2.61387         0.659214     -0.106952     -0.578921
O      13.45907      7.41747     15.30387        -0.263367      1.524935     -0.345241
O       1.79402      7.65415      6.93313         0.410422     -1.023735     -0.634197
O      13.26210      7.57597      6.90845        -0.378634      0.364000     -0.650019
O       1.99147      7.63403     11.04463        -0.608857     -0.641738     -0.115318
O      13.21494      7.65433     11.17085         0.533733     -1.030867     -0.280598
O       1.85883     11.32701      2.74624        -0.133452      1.917550     -0.468160
O       1.90754     11.49767     15.46456        -0.123357     -1.664501     -0.247654
O      13.20166     11.37674      2.61253         0.124822     -0.226227     -0.463534
O      13.14698     11.35117     15.17316         0.146554      0.183132     -0.059648
O       1.89240     11.31677      6.78622         0.154701      1.405277     -0.229351
O      13.18825     11.47520      7.02550        -0.111607     -0.598321     -0.789848
O       1.91235     11.37847     11.10740        -0.464627      0.822905     -0.446979
O      13.16947     11.40977     10.96699        -0.639569     -0.398931      0.119691
O       5.74386      3.70599      2.78552        -0.424608      2.214376     -0.234822
O       5.86207      3.82581     15.30848        -0.614784     -0.765246     -0.374252
O       5.65282      0.03871      2.57994         0.420448     -0.104835      0.117922
O       5.73535      0.02129     15.27131        -0.122193     -0.490054     -0.089102
O       5.59658      3.71171      6.89960         0.405713      0.290993     -0.735809
O       5.77763     15.17818      7.01724        -0.388747     -0.342550     -0.480530
O       5.55280      3.69367     11.03933         0.533672      0.032724     -0.370938
O       5.78312     15.11756     11.33137        -0.421198      0.878611     -1.197839
O       5.56691      7.58355      2.57896         0.806574      0.013760     -0.454212
O       5.65016      7.49595     15.46402        -0.245815      1.272628     -0.485646
O       5.56541      7.55619      6.74849         0.937047      0.644463     -0.329012
O       5.53580      7.51989     11.16471         0.103866      1.523254     -0.558486
O       5.70866     11.51269      2.62878         0.102724     -2.385076     -0.449716
O       5.70617     11.33333     15.53826        -0.028719     -0.018888     -0.671069
O       5.52704     11.44104      6.86899        -0.132673     -0.707805     -0.457956
O       5.64324     11.41210     11.18313        -0.004295     -0.436317     -0.534898
O       9.45033      3.80386      2.61351         0.326033     -0.126510     -0.131271
O       9.45006      3.74875     15.24711         0.428637      1.169599     -0.181817
O       9.47875      0.01283      2.61290        -0.269019     -0.856421     -0.720650
O       9.44118     15.14992     15.43477         0.131997     -0.485635     -0.353940
O       9.53407      3.83494      6.74544         0.161229      0.389883     -0.016240
O       9.45051      0.06564      6.82112        -0.088098     -0.351722      0.059392
O       9.53825      3.86676     11.19173        -0.324031     -0.918157     -0.354759
O       9.42793      0.03684     11.07350        -0.158252     -0.308919     -0.479009
O       9.52405      7.52452      2.54517         0.015394      0.736688     -0.329323
O       9.44202      7.59977     15.56550         0.731817     -0.708607     -0.838497
O       9.37545      7.74187      6.75839         0.376886     -1.962687     -0.178159
O       9.40803      7.55942     11.11425        -0.459205     -0.326383     -0.730839
O       9.34226     11.33609      2.57307         0.560483      0.970589     -0.459996
O       9.48124     11.27221     15.23681         0.234542      1.305606     -0.129240
O       9.39756     11.45894      6.96904         0.404636      0.077097     -0.844886
O       9.34812     11.33091     11.11783         0.885359     -0.461330     -0.271492
