  # total energy = -7883.65520857 
CRSYTAL
PRIMVEC
    15.2000000000000000    0.0000000000000000    0.0000000000000000
     0.0000000000000000   15.2000000000000000    0.0000000000000000
     0.0000000000000000    0.0000000000000000    17.000000000000000
PRESSURE
7.8148 8.04191 4.43026 -0.000392 -0.031063 0.003411
PRIMCOORD
320 1
Pb       3.75354      3.78776      4.23837        -0.027005      0.042991     -0.182706
Pb       3.79724      3.80132     16.97711         0.634521     -0.243109      0.013534
Pb       3.75624      0.01714      4.22232         0.112601     -0.174349      0.353120
Pb       3.78631     15.18279     16.95998         0.087027     -0.180555      0.143990
Pb      15.19785      3.79296      4.21782        -0.135081     -0.129356      0.027671
Pb       0.01668      3.81430     16.96252        -0.339006     -0.279865      0.701724
Pb      15.17702      0.01399      4.26785         0.078241      0.103061     -0.165658
Pb      15.19587     15.17165     16.96583        -0.017294     -0.054969      0.532795
Pb       3.80430      3.79918      8.44583        -0.185971     -0.164434     -0.077649
Pb       3.79159     15.16205      8.51346        -0.177575     -0.066847     -0.359072
Pb       0.01266      3.75041      8.50250        -0.295610     -0.102835     -0.148034
Pb      15.13934     15.17878      8.46816         0.272825      0.083714      0.563008
Pb       3.79619      3.74171     12.68456         0.027428      0.303133      0.239096
Pb       3.79059      0.00862     12.74264        -0.107882     -0.417913      0.040063
Pb      15.17037      3.78317     12.70931         0.072080      0.451105     -0.048724
Pb      15.19623     15.19485     12.74379        -0.132753     -0.629328     -0.404547
Pb       3.76560      7.58928      4.24311        -0.000405      0.014945     -0.026960
Pb       3.76669      7.59476     16.96848         0.103358     -0.291876      0.051357
Pb      15.16602      7.61179      4.24610         0.106305      0.131312     -0.149783
Pb      15.15728      7.56055     16.95977        -0.096789      0.055841      0.121392
Pb       3.78730      7.57910      8.45022         0.394159      0.102633      0.022575
Pb      15.15949      7.57063      8.47660        -0.063984      0.023139      0.169874
Pb       3.75547      7.56908     12.71772         0.230323     -0.236728     -0.180414
Pb      15.19251      7.56807     12.74433        -0.122375      0.027868     -0.231434
Pb       3.73711     11.38115      4.24158         0.216967      0.364117     -0.121783
Pb       3.83265     11.38024      0.00713        -0.466954      0.380214     -0.108062
Pb      15.19586     11.39298      4.21552        -0.188784     -0.398033     -0.247789
Pb       0.00239     11.36369     16.94021         0.212562      0.282126      0.538915
Pb       3.75826     11.37853      8.49618        -0.049076      0.166723     -0.357830
Pb      15.17729     11.37130      8.50492         0.079772      0.117882     -0.317309
Pb       3.77426     11.35017     12.69928        -0.195755      0.263230      0.484165
Pb      15.17055     11.31436     12.77252         0.112127      0.345645     -0.382657
Pb       7.57305      3.79169      4.22916         0.105228     -0.206916      0.158721
Pb       7.59501      3.78148      0.00454        -0.447305     -0.151738     -0.343083
Pb       7.57522     15.16219      4.21626         0.228032      0.186581      0.291923
Pb       7.60578     15.16852     16.96817        -0.169580     -0.040614      0.354459
Pb       7.60278      3.73983      8.47461        -0.265476      0.005254     -0.209588
Pb       7.59110     15.19685      8.48534         0.046532      0.252790      0.362186
Pb       7.60532      3.76413     12.72951        -0.113615     -0.018619     -0.155237
Pb       7.57903     15.16677     12.73797         0.018414      0.192659     -0.306041
Pb       7.59528      7.55659      4.19683         0.435198     -0.066118      0.118074
Pb       7.60354      7.60567     16.99150        -0.018836      0.089135      0.352281
Pb       7.58333      7.59107      8.44974        -0.294396     -0.129507     -0.365017
Pb       7.57523      7.60543     12.70140        -0.361847     -0.467004      0.080895
Pb       7.56188     11.37110      4.23888         0.324299      0.303182     -0.104360
Pb       7.56511     11.39415     16.96750         0.201557     -0.048934      0.196392
Pb       7.58774     11.39592      8.51064         0.517064     -0.205214     -0.413788
Pb       7.60133     11.38474     12.70762         0.057152     -0.058478      0.449462
Pb      11.36950      3.82777      4.19686         0.321919     -0.300951      0.256718
Pb      11.36501      3.74830     16.96801         0.046402      0.157653      0.029373
Pb      11.40411     15.17540      4.21477        -0.497423      0.190523     -0.127253
Pb      11.38806     15.19048     16.97087        -0.281034      0.086736      0.307966
Pb      11.38797      3.78296      8.47391         0.467236     -0.244528     -0.030274
Pb      11.37632     15.18724      8.47664         0.103470      0.177241      0.104981
Pb      11.36212      3.74009     12.72241         0.034049      0.257537      0.051669
Pb      11.38523     15.19432     12.70244        -0.056469     -0.332131     -0.159042
Pb      11.39532      7.55860      4.20232        -0.282458     -0.071145      0.215989
Pb      11.38153      7.58934     16.96828         0.306806     -0.101580     -0.080081
Pb      11.37429      7.57354      8.51378        -0.113809      0.019815     -0.216697
Pb      11.38424      7.60269     12.75940         0.078709     -0.041370      0.069086
Pb      11.37745     11.36752      4.21559        -0.099014     -0.052999      0.313041
Pb      11.40081     11.38673     16.92747        -0.341171     -0.108115      0.355285
Pb      11.38800     11.36962      8.48714        -0.647266      0.329079     -0.759771
Pb      11.35792     11.33424     12.67513         0.108105      0.358717      0.714167
Ti       1.90492      1.89349      2.27608        -0.796021      0.301153     -0.134305
Ti       1.88205      1.92015     15.03518         0.337482     -1.255519      0.326147
Ti       1.83513     13.33438      2.29144         0.099611     -0.408827     -0.590311
Ti       1.83504     13.29625     15.00096         1.045584     -0.835249     -0.780288
Ti      13.26740      1.86372      2.25442         0.461043      0.802009     -0.413036
Ti      13.28293      1.85335     14.98235         0.056780      0.374438      0.644332
Ti      13.22710     13.29108      2.24322         0.981383     -0.828350      0.219356
Ti      13.22814     13.33214     14.94901         0.410108     -0.776268     -0.257693
Ti       1.85062      1.88126      6.52755         0.858120     -0.449003     -0.356701
Ti       1.85149     13.25504      6.46859         0.641212      1.043860      0.975877
Ti      13.32383      1.85278      6.45681        -0.529443      1.356285      1.017098
Ti      13.30770     13.27842      6.45648        -1.177795     -0.055656      0.434172
Ti       1.86022      1.86277     10.79125        -0.082174      0.172245     -0.199516
Ti       1.88837     13.28910     10.72058        -0.805459      0.227460      0.417620
Ti      13.30668      1.90070     10.84872        -0.380150     -0.199723     -1.997674
Ti      13.22961     13.26890     10.69265         0.631088      1.006557      0.745488
Ti       1.91106      5.73649      2.22461        -0.776445     -0.766838     -0.251010
Ti       1.90523      5.61708     14.94171        -0.060057      1.099387      0.538482
Ti      13.29551      5.69778      2.22428         0.543278     -0.946846      0.747086
Ti      13.30927      5.59773     14.98835        -0.966761      0.946724     -0.121862
Ti       1.90339      5.74058      6.50212        -0.386999     -1.332859      0.040098
Ti      13.33880      5.68773      6.50561        -1.230650     -0.395025     -0.262426
Ti       1.87948      5.67451     10.70129        -0.362149      0.126419      0.346596
Ti      13.22562      5.74167     10.73168         0.755218     -0.806379     -0.541217
Ti       1.97365      9.49501      2.23852        -2.011208      0.646092      1.488647
Ti       1.89301      9.40723     14.99281        -0.299329      1.307227      0.147297
Ti      13.25658      9.47112      2.24815         1.096324      0.394268     -0.371181
Ti      13.31457      9.53225     15.02105        -0.694102     -1.139857     -1.053404
Ti       1.85658      9.47139      6.50203         0.353023      0.506076     -0.970781
Ti      13.24920      9.47471      6.52326        -0.147795      0.555658      0.630564
Ti       1.89081      9.49963     10.74090        -0.447617     -0.430465      0.090667
Ti      13.21467      9.51401     10.73444         0.936853     -0.731687     -0.012090
Ti       5.67535      1.89367      2.31184         0.615035      0.413739     -1.212320
Ti       5.71070      1.84015     14.94754        -0.021345      1.092136      0.848142
Ti       5.65350     13.32952      2.29411         0.094574     -0.326019      0.543518
Ti       5.72480     13.24369     14.99165        -1.117863     -0.097769      0.480156
Ti       5.66117      1.83137      6.50232         0.449277      0.332928      0.365882
Ti       5.70709     13.28184      6.53719        -1.116461      0.122103     -0.972481
Ti       5.62183      1.87267     10.75417         1.419766     -0.029979     -0.019687
Ti       5.65037     13.26535     10.77655         0.716816      0.845465     -0.067405
Ti       5.69474      5.70863      2.20507        -0.194524     -0.673419      1.259062
Ti       5.70610      5.71696     14.96123        -0.826038     -0.972514      0.929886
Ti       5.64635      5.64307      6.41750         0.859669      0.623576      1.810593
Ti       5.64432      5.63601     10.71584         0.210390      0.982633      1.317818
Ti       5.77931      9.50364      2.22743        -0.977794     -0.556849      0.263470
Ti       5.64553      9.45150     15.04863         0.779713      0.818582     -0.233936
Ti       5.66482      9.52243      6.46275         0.123225     -1.036588      0.542525
Ti       5.67385      9.51920     10.76263        -0.378708     -1.611883      0.251961
Ti       9.45693      1.89097      2.23721         0.244706     -0.738167      0.191843
Ti       9.45853      1.88796     15.01023         0.460409      0.056726      0.338605
Ti       9.48333     13.28288      2.24388        -0.749590      0.072065     -0.146917
Ti       9.49027     13.25605     14.99539        -0.384879      0.077683     -0.437001
Ti       9.51249      1.92816      6.49158        -0.328418     -0.710971     -0.824697
Ti       9.40945     13.36047      6.46058         1.557011     -1.318218      0.173680
Ti       9.47662      1.85617     10.75601        -0.121254      0.139459      0.103011
Ti       9.44526     13.27651     10.77966         0.283917     -0.046706     -0.314281
Ti       9.50341      5.64650      2.22054        -0.329092      0.699369     -0.291573
Ti       9.39488      5.73683     14.98698         1.240017     -0.921753      0.458342
Ti       9.51775      5.68620      6.52595        -0.807690      0.475388     -1.423298
Ti       9.45800      5.67258     10.73256        -0.303555     -0.383680      0.431697
Ti       9.50101      9.50238      2.21443         0.332800     -0.195611     -0.119199
Ti       9.45815      9.43293     14.98562         0.182368      0.895255      0.601440
Ti       9.48754      9.44187      6.45769        -0.446702      1.569732      0.013811
Ti       9.42417      9.44517     10.74839         0.990040      0.190927     -0.504557
O       1.91917      1.85471      0.49772        -0.093848     -0.068573     -0.453403
O       1.88120      1.91968     13.29110         0.081056     -0.435188     -1.067494
O       1.84064     13.33856      0.50148         0.195194      0.023981     -0.027336
O       1.87772     13.30125     13.16219        -0.047072     -0.070904      0.944447
O      13.32184      1.89051      0.47356        -0.067727     -0.083614     -0.147724
O      13.29971      1.92225     13.20750        -0.112408     -0.156126     -0.168989
O      13.27954     13.23237      0.49158        -0.200357      0.070085     -0.814422
O      13.23496     13.31936     13.18307         0.173645      0.008193      0.198929
O       1.83968      1.84246      4.74777         0.292690      0.178383     -0.193666
O       1.77369     13.26021      4.73176         0.343245      0.196649     -1.039181
O      13.40076      1.96722      4.72498        -0.695905     -0.572779     -0.837238
O      13.19272     13.26628      4.67850         0.209001      0.163277      0.101785
O       1.77055      1.83020      9.06740         0.362174      0.422019     -1.421150
O       1.90632     13.30103      8.96463        -0.086132     -0.373294     -0.533673
O      13.24909      1.88472      9.01991         0.417891      0.243874      0.539350
O      13.22383     13.44525      8.92990         0.116623     -0.842158      0.238549
O       1.95450      5.78189      0.42478        -0.324257     -0.361119      0.387075
O       1.78403      5.73532     13.20832         0.554047     -0.337230     -0.500772
O      13.41880      5.63380      0.47804        -0.219800      0.135793     -0.836930
O      13.20706      5.57438     13.21556         0.334567      0.517785     -0.085111
O       1.91312      5.67347      4.74394         0.157451      0.082600     -0.288727
O      13.22916      5.70809      4.72064        -0.019266      0.014357      0.088428
O       1.92795      5.64654      8.91281        -0.320905      0.267397      0.085843
O      13.29656      5.72622      8.90466         0.116634      0.121760      0.707594
O       1.86906      9.60846      0.51989         0.041875     -0.709944     -1.193852
O       1.72952      9.60574     13.23717         0.824336     -0.435601     -0.414525
O      13.33284      9.35468      0.46453        -0.175738      0.777819     -0.248300
O      13.21929      9.44903     13.18501         0.408096      0.225010      0.728616
O       1.74676      9.39027      4.70879         0.809938      0.438847      0.222971
O      13.23896      9.53775      4.80342        -0.039545     -0.315602     -1.429964
O       1.90938      9.58097      8.97085        -0.173313     -0.345678     -0.569394
O      13.23984      9.48067      8.93426         0.271322      0.003478      0.259727
O       5.70371      1.96431      0.51429         0.104255     -0.059537     -0.035934
O       5.68888      1.92466     13.19057        -0.059618     -0.285653     -0.537119
O       5.67416     13.31500      0.56803        -0.108495     -0.247953     -1.609050
O       5.63291     13.23656     13.24488         0.226145      0.075346     -1.065736
O       5.72940      1.80681      4.74182        -0.412485      0.236723     -0.454115
O       5.65326     13.25987      4.74840         0.126256      0.079141      0.012493
O       5.76052      1.75990      9.00373        -0.326620      0.613173     -0.478591
O       5.70798     13.30523      9.02056         0.044169     -0.200194     -0.662805
O       5.73582      5.63732      0.48367        -0.304737      0.067947     -1.233895
O       5.68970      5.69406     13.24317        -0.147037      0.004505     -1.352620
O       5.60464      5.59707      4.69661         0.143279      0.340270     -1.085187
O       5.59291      5.70704      8.99929         0.150878     -0.027284     -1.406800
O       5.71001      9.43439      0.47536        -0.128528      0.144871     -0.611244
O       5.67360      9.51333     13.27880        -0.054131     -0.039111     -0.581984
O       5.74818      9.41909      4.71627        -0.224201      0.351284     -0.735118
O       5.65063      9.52178      9.01799        -0.100942     -0.146013     -0.577644
O       9.48630      1.80450      0.45092        -0.271202      0.491851     -0.136099
O       9.55035      1.85002     13.24371        -0.149930     -0.092111     -0.433690
O       9.46107     13.21621      0.45913         0.002656      0.277337     -0.154546
O       9.49711     13.34251     13.20038        -0.334466     -0.127530      0.208014
O       9.50772      1.83507      4.71266         0.161940      0.197476      0.039749
O       9.41552     13.30925      4.67978         0.385507      0.001166      0.094494
O       9.45591      1.81688      9.00081         0.061047      0.595755     -0.871428
O       9.33863     13.30151      9.01282         0.296973     -0.340006     -0.229722
O       9.46577      5.64373      0.43386         0.038551     -0.006719      0.278736
O       9.44341      5.79244     13.23341         0.064472     -0.097628     -0.612049
O       9.52735      5.80035      4.69263        -0.039103     -0.512763      0.495073
O       9.48340      5.69839      8.98122        -0.347474     -0.050630     -0.942827
O       9.57897      9.44595      0.43693        -0.264188      0.215374      0.101735
O       9.47175      9.48491     13.21069        -0.074034     -0.449136     -0.401134
O       9.48370      9.61360      4.68147        -0.203288     -0.610575     -0.100038
O       9.44461      9.43620      8.97648        -0.017894      0.160016     -0.007884
O       3.81846      1.87539      2.59020        -0.634353     -0.135048      0.529818
O       3.83680      1.98480     15.34402        -0.644604     -0.812701      0.085336
O       3.76496     13.31176      2.70118        -0.037515      0.030669      0.024919
O       3.77174     13.22086     15.34682         0.121056      0.309042      0.240987
O      15.14204      1.93405      2.70918         0.890017     -0.513575     -0.431975
O       0.00626      1.75931     15.40261        -0.527412      0.592275     -0.322392
O      15.17432     13.22760      2.61181        -0.611906      0.402682      0.168088
O      15.14952     13.30209     15.34233        -0.192321     -0.266775     -0.112461
O       3.80232      1.84890      6.92440        -0.228283     -0.093729      0.016224
O       3.79669     13.35021      6.83452        -0.542536      0.023155      0.312531
O       0.01940      1.81726      6.87214        -0.880145      1.021538      0.266954
O      15.13728     13.29689      6.89795         0.408389     -0.469982     -0.026088
O       3.77220      1.81895     11.12701        -0.220199      0.369273      0.186136
O       3.82900     13.36726     11.04444        -1.049920     -0.355397      0.544415
O      15.17637      1.85157     11.14155         0.341073      0.222759      0.531292
O      15.15470     13.29817     11.06996        -0.109417     -0.394593     -0.005429
O       3.72169      5.55526      2.64650         1.044430      0.872662     -0.192152
O       3.80122      5.69620     15.36606        -0.171743     -0.211348     -0.043655
O       0.00675      5.57791      2.64827         0.002927      0.582003     -0.285013
O      15.18325      5.65979     15.29699         0.471194     -0.010331      0.351435
O       3.75637      5.70865      6.87337         0.693558     -0.168019      0.047807
O      15.18547      5.56848      6.81623         0.283924      1.056115      0.329600
O       3.73503      5.61038     11.15940         0.368922      0.295015      0.022476
O      15.19113      5.73172     11.14475        -0.141871     -0.193363     -0.375210
O       3.75849      9.56624      2.60647         0.919762     -0.664823      0.236806
O       3.78594      9.47018     15.44606        -0.257345      0.126537     -0.239507
O      15.15827      9.43020      2.70411         0.127109      0.496305     -0.336347
O       0.01771      9.54059     15.31921        -0.541365     -0.107889      0.259375
O       3.72083      9.51318      6.83789         0.991170     -0.379637      0.160933
O       0.03070      9.52326      6.81636        -1.490926     -0.318222      0.841096
O       3.76382      9.42294     11.18580         0.242580      0.661535     -0.014325
O       0.02005      9.39445     11.09660        -0.970579      0.760598     -0.082029
O       7.57845      1.84341      2.73844         0.429665      0.525723     -0.462358
O       7.61420      1.88986     15.31645        -0.452194     -0.105079      0.200004
O       7.52151     13.34523      2.67534         0.764039     -0.484302     -0.171501
O       7.56956     13.21935     15.38635         0.367020      0.294922     -0.070423
O       7.59671      1.92807      6.87864        -0.068103     -0.042807      0.137649
O       7.57663     13.28185      6.84465        -0.230911     -0.162905      0.246424
O       7.59778      1.93262     11.10303        -0.167429     -0.108677      0.424742
O       7.55004     13.28446     11.20301         0.217339     -0.238404      0.115352
O       7.61949      5.62507      2.56602        -0.509505      0.444622      0.286539
O       7.51960      5.72184     15.33687         1.385439      0.039776      0.316400
O       7.55892      5.69037      6.84388         0.151368     -0.049529      0.140460
O       7.55701      5.60549     11.17489         0.173595      0.435258     -0.352700
O       7.62594      9.48394      2.55792        -0.463253     -0.326037      0.272429
O       7.59018      9.47935     15.42847        -0.056140     -0.297440     -0.175717
O       7.56346      9.45829      6.92014        -0.372026      0.440593     -0.149198
O       7.59087      9.38912     11.08758        -0.907083      0.657267      0.216711
O      11.36442      1.87753      2.53464         0.189490     -0.156508      0.500024
O      11.38222      1.90083     15.44514         0.046686     -0.328970     -0.394187
O      11.35918     13.28849      2.52742        -0.178106      0.056516      0.466141
O      11.34765     13.24026     15.30464        -0.008208      0.431545      0.389680
O      11.38828      1.96840      6.91696         0.421747     -0.661693     -0.295616
O      11.39332     13.34202      6.95424        -0.225253     -0.157229     -0.548465
O      11.43201      1.95439     11.08865        -0.665848     -0.470491      0.503671
O      11.34085     13.30936     11.16535         0.329870     -0.085724     -0.376019
O      11.37371      5.61365      2.58504         0.545369      0.497644     -0.101109
O      11.41400      5.67606     15.29390        -0.165306      0.262964      0.417471
O      11.33386      5.75826      6.90463         0.865866     -0.477079      0.124730
O      11.35160      5.70953     10.99912         0.534561      0.019689      0.503156
O      11.37254      9.53086      2.60398         0.060590     -0.426230      0.146401
O      11.37055      9.37485     15.33599         0.179333      0.340908      0.044184
O      11.30833      9.52656      6.86191         0.833525      0.065113      0.305858
O      11.37468      9.52397     11.11697        -0.253350     -0.907102     -0.142005
O       1.94918      3.73771      2.54548        -0.425493      0.734980      0.338051
O       1.81227      3.76194     15.30128         0.336150      0.362388      0.402518
O       1.82481      0.03332      2.73386         0.242517     -0.579379     -0.216326
O       1.90566     15.14620     15.43933         0.208380      0.463700     -0.408191
O      13.31375      3.74913      2.62368        -0.519816      0.847361      0.051784
O      13.25400      3.71438     15.42599         0.607091      0.483366     -0.222085
O      13.28683     15.15731      2.53700        -0.068683      0.258737      0.558107
O      13.25564     15.17343     15.35911        -0.258797      0.223758     -0.024513
O       1.96801      3.74992      6.87346        -0.344336      0.506408      0.238268
O       1.80023     15.17747      6.86584         0.550143     -0.237588      0.107228
O      13.27532      3.81677      6.82309        -0.084677     -0.303656      0.409570
O      13.36540      0.03869      6.84485        -0.730798     -0.901530     -0.362653
O       1.89936      3.77706     11.11905        -0.299433     -0.004460      0.081224
O       1.83649     15.17618     11.03400         0.316538     -0.109192      0.885172
O      13.35961      3.83911     11.16504        -0.344646     -0.101836     -0.289010
O      13.26756     15.16803     11.12793        -0.047136      0.192508      0.291254
O       1.82188      7.57856      2.71153         0.657278      0.025913     -0.642853
O       1.98145      7.55230     15.31488        -0.627364      0.240321      0.082150
O      13.31582      7.57360      2.56747        -0.397938     -0.421567      0.360221
O      13.41501      7.64758     15.42014        -0.554442     -1.174037     -0.474857
O       1.90819      7.58723      6.83593        -0.426375     -0.070134      0.435958
O      13.09654      7.63119      6.85434         1.334287     -0.838504      0.185961
O       1.89732      7.57200     11.10732         0.203848      0.008894     -0.065493
O      13.32230      7.59399     11.12145        -0.503938      0.031564     -0.020934
O       1.87842     11.46833      2.59813         0.063638     -1.415769      0.423613
O       1.84897     11.34170     15.44774         0.339874      0.772202     -0.331295
O      13.22203     11.33317      2.63276         0.301950      0.626567     -0.084066
O      13.11143     11.40969     15.29655         1.036877     -0.305611      0.147671
O       1.92359     11.41820      6.78436        -0.290937     -0.630377      0.549676
O      13.25713     11.37785      6.85547         0.082217      0.538647      0.431574
O       1.87166     11.38790     11.07972         0.231918      0.056425      0.244385
O      13.18017     11.37007     11.09712         0.718551      0.242426     -0.272944
O       5.72736      3.82744      2.66102        -0.199425     -0.542986      0.120360
O       5.73143      3.76525     15.33436         0.074942      0.351545      0.153309
O       5.70693      0.02398      2.49870        -0.351850     -0.554860      0.747246
O       5.77190     15.13592     15.34612        -0.531806      0.715756     -0.033191
O       5.69709      3.78231      6.86874        -0.342732     -0.245862      0.187356
O       5.69393     15.17577      6.93156         0.189180     -0.098987     -0.148368
O       5.69803      3.79075     11.06291        -0.460430     -0.701109      0.342268
O       5.71389      0.03491     11.12433         0.041093     -1.103740      0.549528
O       5.59239      7.55758      2.58909         0.241177      0.255418      0.235233
O       5.76369      7.62545     15.41058        -0.672039     -0.903323     -0.043812
O       5.68340      7.57799      6.79291        -0.420997      0.073844      0.356656
O       5.57929      7.55743     11.14156         0.503306      0.227910      0.026800
O       5.70723     11.30285      2.56843        -0.205340      1.411646      0.429594
O       5.69493     11.37249     15.40157        -0.062110     -0.194771      0.221380
O       5.51775     11.38110      6.84361         0.961412      0.118530      0.226008
O       5.69252     11.36458     11.10097        -0.101494      0.204663      0.267667
O       9.53231      3.75190      2.61615        -0.505702      0.411471     -0.043554
O       9.45861      3.82776     15.29740         0.041623     -0.422883      0.235174
O       9.49345     15.18980      2.61438        -0.013324     -0.199562      0.032985
O       9.43391     15.16239     15.42540         0.309262     -0.044530     -0.331487
O       9.53380      3.80023      6.74052        -0.351014      0.256220      0.692848
O       9.49089      0.01628      6.81248        -0.102930     -0.272731      0.252591
O       9.55568      3.73658     11.10358        -0.371412      1.092091      0.251867
O       9.45561     15.16027     10.97686         0.143038      0.413933      1.016472
O       9.47349      7.60910      2.61533         0.159732     -0.556189     -0.125117
O       9.50678      7.57160     15.51392        -0.438968     -0.084770     -0.711679
O       9.48645      7.60463      6.75563        -0.315292     -0.197494      0.609746
O       9.43616      7.56021     11.09518         0.295423      0.115255      0.231519
O       9.44260     11.41117      2.59064        -0.053399     -0.188942      0.121847
O       9.36998     11.35065     15.32932         0.822950      0.043904     -0.007750
O       9.46004     11.40374      6.87805        -0.143387      0.318778      0.222473
O       9.55063     11.35325     11.12579        -0.906396      0.002048     -0.081790
