  # total energy = -7877.65596439 
CRSYTAL
PRIMVEC
    15.2000000000000000    0.0000000000000000    0.0000000000000000
     0.0000000000000000   15.2000000000000000    0.0000000000000000
     0.0000000000000000    0.0000000000000000    17.000000000000000
PRESSURE
7.95077 8.05254 1.321 -0.342829 0.172237 -0.055912
PRIMCOORD
320 1
Pb       3.86491      3.61975      4.15073         0.461190      0.634166     -0.286656
Pb       3.70487      3.66801     16.84209        -0.070024      0.396061      0.677778
Pb       3.89122     15.05326      4.09337         0.050736      0.106418      0.190408
Pb       3.59208     15.17693     16.87472         0.209053     -0.317911      0.693665
Pb       0.00555      3.48389      4.14843        -0.164378      1.227544      0.877613
Pb      15.11555      3.88459     16.99693         0.359833     -0.652163      0.304480
Pb      15.12579     14.99580      4.26801        -0.041908      0.138911     -0.523143
Pb      15.02236      0.00044      0.12047         0.735961     -0.173693     -0.104008
Pb       3.57910      3.97178      8.57753         0.520931     -0.311712     -0.501767
Pb       3.80532     15.15470      8.49527         0.188856      0.331826      0.064363
Pb       0.06947      3.78845      8.49903        -0.320889      0.327693     -0.675854
Pb       0.01943      0.03536      8.20924        -0.050992     -0.453574      1.359766
Pb       3.72557      3.81532     12.68166        -0.148283     -0.522133      0.475523
Pb       3.70262      0.08811     12.77443        -0.006837     -0.019647     -0.228959
Pb      15.02251      4.04541     12.72366         0.492778     -1.050569      0.046082
Pb      15.09545      0.11903     12.73710         0.363851     -0.637943      0.261463
Pb       3.86361      7.47552      4.13993         0.124305     -0.582253      0.490955
Pb       3.63411      7.52633     16.78589         0.196323     -0.581367      0.710861
Pb       0.00131      7.55257      4.29843        -0.298651     -0.369777      0.006746
Pb      14.93338      7.52576      0.07942         1.091504      0.298207     -0.023978
Pb       3.83463      7.59518      8.54706        -0.236986     -0.035410     -0.025440
Pb       0.12830      7.64762      8.46634        -0.366983     -0.219011     -0.227929
Pb       3.77968      7.71566     12.79891        -0.659212     -0.022596     -0.033621
Pb       0.02976      7.72157     12.77822        -0.180574      0.079934      0.003346
Pb       3.99482     11.18266      4.13456        -0.620399      0.513176      0.231542
Pb       3.71998     11.39097     16.92039        -0.145552     -0.331559      0.382700
Pb       0.16339     11.23298      4.18033        -0.655293      0.482870      0.347945
Pb      15.05763     11.36079      0.03462        -0.014510     -0.029661      0.224704
Pb       3.81901     11.41019      8.52589         0.000607     -0.455058     -0.462252
Pb       0.21641     11.44575      8.32901        -0.768750     -0.205737     -0.077607
Pb       3.83744     11.55909     12.71629        -0.507027     -0.655324      0.512918
Pb       0.05597     11.48791     12.86249        -0.484506     -0.272144     -0.130982
Pb       7.57406      3.79213      4.38965        -0.062190      0.115904     -0.703934
Pb       7.54675      3.74354     16.87419        -0.003804     -0.051293      0.176022
Pb       7.60532     15.10721      4.21735        -0.228956      0.232041      0.466382
Pb       7.57318      0.00613     16.84316        -0.275784     -0.105246      0.823763
Pb       7.32294      3.72205      8.78009         0.522871      0.281225     -0.546205
Pb       7.60227      0.03861      8.63898        -0.231402     -0.197393     -0.277802
Pb       7.67153      3.87568     12.75102        -0.038489     -0.590559      0.305006
Pb       7.47967     14.99715     12.77712         0.334473      0.728194     -0.084314
Pb       7.58644      7.54144      4.03802        -0.181432     -0.734949      1.516089
Pb       7.75816      7.59407      0.02446        -0.089698     -0.121957     -0.484634
Pb       7.47982      7.55989      8.54036         0.504793     -0.054138      0.265828
Pb       7.51532      7.64874     12.66443         1.094958      0.008308      0.882133
Pb       7.64163     11.43991      4.32832        -0.334394     -0.299993     -0.050515
Pb       7.45522     11.36286     16.93308         0.527971     -0.183903     -0.216568
Pb       7.70227     11.35199      8.68681        -0.117462     -0.150365     -0.743404
Pb       7.64941     11.51640     12.78091         0.521261     -0.530289      0.112750
Pb      11.22282      3.77947      4.44142         0.120476     -0.155391     -0.810097
Pb      11.24910      3.73653     16.96025         0.084644      0.221617      0.262773
Pb      11.29944     15.15935      4.26250         0.075024     -0.086543     -0.073313
Pb      11.32218      0.16448      0.10319        -0.086533     -0.636491      0.034750
Pb      11.38989      3.86799      8.51154         0.156131     -0.239350      0.003681
Pb      11.53174      0.00647      8.41563        -0.402957     -0.432921      0.595585
Pb      11.36853      3.84105     12.63909         0.134175     -0.002713      0.452791
Pb      11.43094     15.19418     12.58653        -0.181246     -0.070750      0.634599
Pb      11.26411      7.47490      4.31741         0.415432      0.025998     -0.507904
Pb      11.45755      7.64815      0.01287        -0.945802     -0.117841      0.342582
Pb      11.42111      7.59481      8.61250         0.305307      0.126605     -0.115418
Pb      11.54393      7.77392     12.82263        -0.249092     -0.465776     -0.632953
Pb      11.30516     11.37625      4.27638         0.855905     -0.071887     -0.012805
Pb      11.36420     11.38047      0.03222        -0.028944     -0.082397      0.075867
Pb      11.48950     11.32998      8.32353        -0.089195      0.436215      0.909484
Pb      11.45389     11.50419     12.56897        -0.083207     -0.202336      1.116021
Ti       1.91735      1.75354      2.31000         0.495442      0.292523     -1.720897
Ti       1.71352      1.83208     14.95794         0.126612     -0.131840     -0.387730
Ti       1.92775     13.19086      2.15392         0.009935     -0.076817     -1.055483
Ti       1.77411     13.22146     14.99387        -0.215724      0.772340      0.719889
Ti      13.25139      1.84859      2.32840        -0.726793     -0.632190      0.340557
Ti      13.26505      1.89526     14.95306         0.187874     -0.158394     -0.510409
Ti      13.29704     13.26437      2.27172        -0.594705     -1.538920     -0.822776
Ti      13.21601     13.33232     15.04902        -0.091346     -0.806396     -0.326382
Ti       1.99204      1.78958      6.35576        -0.449500      1.721208      0.835915
Ti       1.98317     13.35877      6.31870        -0.567508     -2.243787      1.201725
Ti      13.27964      1.89680      6.58590         0.324916      1.122023     -1.562489
Ti      13.27896     13.27026      6.40934         0.175424     -1.009735     -1.336596
Ti       1.79807      1.89871     10.67029         0.405395     -0.226374      0.327962
Ti       1.82252     13.31860     10.73921        -0.244215      0.997934     -0.376159
Ti      13.32025      1.88835     10.70157         0.398676      0.341595     -1.316669
Ti      13.32199     13.33038     10.65308         0.077633     -0.499662     -0.058151
Ti       1.91185      5.57217      2.27033         0.152859      0.021698     -1.867084
Ti       1.79159      5.57661     14.94243         0.172130      0.666869      0.665022
Ti      13.31377      5.57661      2.28819        -0.868899      0.718275      0.378997
Ti      13.21449      5.66954     14.99387         0.104186     -0.613353     -0.661103
Ti       1.95291      5.66626      6.32320        -0.621854     -0.150166      0.554452
Ti      13.32752      5.68532      6.45303         0.966831      0.403594     -0.202771
Ti       1.89627      5.73393     10.83054        -1.076295      0.522728     -0.462144
Ti      13.30530      5.75583     10.69944         0.822367      0.900523      0.002915
Ti       1.90189      9.33733      2.17761        -0.510285      0.720257     -1.226848
Ti       1.79932      9.44532     15.11410        -0.293763      0.006448     -1.509518
Ti      13.25461      9.42157      2.44964        -0.126735      0.415433     -0.450460
Ti      13.22122      9.47299     15.06938         0.710130      1.242975      0.049093
Ti       2.03193      9.45615      6.38642        -1.438544      0.563338      0.039722
Ti      13.29191      9.44373      6.47736         0.949913     -0.252153     -1.400494
Ti       1.91273      9.57749     10.81304        -0.047077     -1.563621     -0.394313
Ti      13.38618      9.58101     10.68491        -0.370341     -0.804876     -0.387324
Ti       5.77129      1.74340      2.17844        -1.229473      1.673934     -0.199450
Ti       5.59811      1.77965     15.03719         0.889488      0.225822     -1.322707
Ti       5.77140     13.15729      2.20389        -0.524479      0.372811     -0.705449
Ti       5.61644     13.19663     14.93475        -0.032359      0.212852     -0.092953
Ti       5.67663      1.88143      6.55169         0.490265     -0.446959     -0.968270
Ti       5.70536     13.22709      6.58060         0.457505      0.360715     -1.199925
Ti       5.64349      1.88674     10.75709        -0.261408     -0.531938      0.039501
Ti       5.67440     13.28562     10.72163        -0.069801      1.765006      0.475303
Ti       5.68431      5.59541      2.06223         0.278983     -0.655269      0.043839
Ti       5.70317      5.64200     14.94095         0.347513     -0.168524      0.262374
Ti       5.75322      5.64540      6.52371        -0.541924      0.013594     -1.076793
Ti       5.71116      5.72664     10.97270        -0.302942     -0.052237     -1.137724
Ti       5.61964      9.32561      2.10964         0.111676      0.069167     -0.331604
Ti       5.63625      9.40489     14.89127         0.365911      0.437470     -0.312598
Ti       5.72058      9.40841      6.52289         0.517417      0.341568     -0.266580
Ti       5.70714      9.60753     10.83196        -0.112519     -1.187205     -1.037100
Ti       9.41945      1.82487      2.33694         0.678452      0.704710     -0.847244
Ti       9.50902      1.84850     14.86633        -0.721364      0.751199     -0.681349
Ti       9.48045     13.20228      2.19258         0.476070      0.621915     -0.496381
Ti       9.47846     13.32728     15.06430         0.350396     -0.940739     -1.246817
Ti       9.46251      1.87811      6.59861        -0.810268      0.657714     -1.346563
Ti       9.41428     13.29721      6.56734         0.817281     -0.294670     -0.029521
Ti       9.46757      1.82800     10.69100        -0.220249      0.549765      0.213863
Ti       9.53372     13.26397     10.65610        -0.145056     -0.189971      0.558427
Ti       9.44805      5.58089      2.16880         0.722382      0.293896      0.607132
Ti       9.53324      5.71419     14.96070        -0.774278      0.202089     -1.972052
Ti       9.54222      5.70436      6.63294        -0.719408     -0.318534     -0.647605
Ti       9.57376      5.69127     10.80302         0.152701      0.179989     -0.223768
Ti       9.38223      9.44960      2.36334         1.146649     -1.112030     -1.511752
Ti       9.39495      9.49040     14.87033         0.847913      0.278216     -0.179443
Ti       9.48096      9.44231      6.56062        -0.268776     -0.018916     -0.780260
Ti       9.57009      9.47706     10.75270         0.497989      0.375596     -0.100287
O       1.75507      1.71634      0.50667         0.513572      0.151401      0.303278
O       1.71429      1.98008     13.17216         0.400480     -0.366644      0.773362
O       1.86329     13.28298      0.32754         0.059783     -0.257508      1.280649
O       1.78207     13.34628     13.21766         0.263756     -0.528984     -0.216826
O      13.27006      1.77733      0.55652        -0.483591      0.141635     -0.410711
O      13.29819      1.89464     13.14026        -0.308189     -0.031040      0.542234
O      13.21417     13.17658      0.40714         0.085043      0.292463      1.405454
O      13.22259     13.30598     13.23264        -0.214799      0.015622      0.544028
O       2.07664      1.81656      4.58258        -0.251806     -0.140637     -0.144115
O       2.11026     13.26990      4.59623        -0.371883     -0.308678     -1.133028
O      13.25447      1.94080      4.73798        -0.116079     -0.195265      0.692100
O      13.23519     13.25814      4.59515         0.373915      0.407808      0.765640
O       1.77937      1.81921      8.84743         0.289642      0.105794      0.799803
O       1.68957     13.34628      8.91189         0.793117     -0.201645      1.387482
O      13.51026      1.80021      8.84394        -0.442882      0.221629      0.879255
O      13.32848     13.32057      8.89747         0.250874      0.027685     -0.964660
O       1.89961      5.57916      0.34653        -0.115563      0.028132      1.484001
O       1.83724      5.49137     13.16067        -0.181856      0.318111     -0.103362
O      13.26125      5.65910      0.44235         0.220442     -0.118469      0.693228
O      13.27320      5.60675     13.18385        -0.310361      0.460172      0.600968
O       2.02769      5.56646      4.56692        -0.132206      0.334971      0.127899
O      13.24522      5.69086      4.66760        -0.040627     -0.446038     -0.050834
O       1.91260      5.77796      9.02341         0.110411     -0.094074     -0.202969
O      13.41526      5.94262      8.95326        -0.310203     -0.609678     -0.501802
O       1.96654      9.39765      0.30033        -0.140484     -0.381690      1.310545
O       1.78696      9.53306     13.21806         0.096120     -0.186176      1.267757
O      13.37978      9.49028      0.59045        -0.579716     -0.675316      0.220541
O      13.33562      9.53029     13.32258        -0.084854     -0.003434     -0.646728
O       1.95974      9.64112      4.59835         0.449625     -0.658114      0.541263
O      13.20160      9.35951      4.61880         0.446132      0.164452      1.382457
O       2.03725      9.41196      8.99304        -0.355401      0.800104      0.667510
O      13.35660      9.44419      8.89794         0.091966      0.311654     -0.001451
O       5.69577      1.80544      0.42459         0.372816     -0.164559     -1.444699
O       5.59237      1.68668     13.23929         0.424577      0.480505      0.155218
O       5.87393     13.18701      0.43057        -0.302813     -0.132024      0.137910
O       5.71021     13.17801     13.08700        -0.198530      0.464683      0.690834
O       5.73137      1.98055      4.70658        -0.076671     -0.262412      0.960496
O       5.82779     13.13294      4.71921        -0.221985      0.067072      0.675113
O       5.53914      1.76279      8.93566         0.434135      0.381677      0.500685
O       5.74368     13.41541      8.97957        -0.587526     -0.226739     -1.208345
O       5.63045      5.66123      0.26743         0.357189     -0.066448     -0.178874
O       5.88774      5.63466     13.11761        -0.745939      0.100003      0.595698
O       5.70595      5.69454      4.69151         0.285754     -0.479904      1.779031
O       5.66005      5.77874      9.15711         0.083072     -0.191640      0.121225
O       5.44659      9.34237      0.34082         0.937692     -0.122131      0.537783
O       5.76763      9.71189     13.09788        -0.307012     -0.855899      0.005903
O       5.80024      9.27692      4.73471        -0.637272      0.718619      0.104335
O       5.59224      9.50215      8.99336         0.152639      0.025728      0.971956
O       9.53168      1.85572      0.48433        -0.044866      0.146440      0.406984
O       9.55931      1.67124     13.07312        -0.291165      0.460820      0.604075
O       9.41020     13.18885      0.40167        -0.254009     -0.003981      0.208122
O       9.56848     13.32972     13.22238        -0.414162      0.181623      0.643303
O       9.38986      1.79696      4.63506         0.281614      0.238132      1.725058
O       9.38942     13.30215      4.74885        -0.100507     -0.191162      0.508702
O       9.32588      1.98194      8.91483         0.733767      0.184281      0.147892
O       9.53202     13.21132      8.91818        -0.063420     -0.152699     -1.067781
O       9.38657      5.58725      0.41013         0.321978      0.076903     -1.166085
O       9.60810      5.79469     13.10167        -0.233220     -0.354039      0.797669
O       9.41894      5.63414      4.80962         0.502859      0.301470      0.613169
O       9.62399      5.59489      8.99157        -0.205789     -0.184672      0.046849
O       9.46628      9.40034      0.54302        -0.156034     -0.096416      0.443369
O       9.46317      9.55277     13.05490         0.195647     -0.505528      1.108275
O       9.53807      9.33882      4.72020        -0.382381      0.294081      0.564153
O       9.67136      9.77332      8.96294        -0.771361     -0.910581      0.547814
O       3.91504      1.77147      2.35309        -2.054529      0.015149      1.247425
O       3.70799      1.72651     15.21618        -0.702178      0.471889      0.467139
O       3.87968     13.17497      2.34172         0.015659      0.432575      0.768076
O       3.73384     13.18306     15.39488         0.159889      0.385438     -0.732406
O       0.00949      1.72097      2.62561        -0.547936     -0.066295      0.342096
O      15.10365      1.70080     15.49392        -0.304131      0.943485     -0.601247
O       0.00385     13.21532      2.50093         0.451491     -0.016496      0.403652
O      15.07235     13.07958     15.39221         0.666772      0.322098     -0.489638
O       3.81362      1.88711      6.83287        -0.510366     -0.440178      0.031198
O       3.78637     13.29605      6.76800         1.191618      0.158501      0.681310
O       0.04419      1.88885      6.67242         0.199234     -0.056055     -0.060455
O       0.06999     13.23299      6.61848        -0.716586      0.215424      0.120260
O       3.77423      1.79118     11.10530        -0.941476      0.489812     -0.041763
O       3.75965     13.47559     11.04489        -0.505220     -0.637473     -0.099320
O      15.18344      1.84688     11.19496        -0.182110      0.689213     -0.905796
O      15.12622     13.31996     11.15853         1.364902     -0.362936     -0.119019
O       3.84442      5.57189      2.56505        -0.770530      0.703234     -0.133295
O       3.75490      5.51219     15.21295         0.123654      0.308725     -0.346260
O       0.04770      5.55261      2.63411        -0.738120     -0.123917     -0.224838
O      15.11154      5.52386     15.33350         0.016300      0.559352     -0.169073
O       3.83435      5.79495      6.81245        -0.112733     -0.485615      0.348697
O       0.04404      5.64073      6.68863         0.662160      0.314186      0.317937
O       3.70944      5.67003     11.19647         1.517159      0.845860      0.252843
O      15.18617      5.81010     11.10477         0.067150     -0.394784      0.313138
O       3.72865      9.33508      2.63511         1.852316     -0.001315     -0.261889
O       3.77648      9.34335     15.31192        -0.647097      0.045101     -0.768304
O       0.08627      9.45099      2.72069        -0.459831      0.045079     -0.415546
O      15.14745      9.45706     15.51214        -0.299703      0.218545     -0.335699
O       3.85095      9.51245      6.77389        -0.063896     -0.123361      0.270807
O       0.03146      9.49892      6.63229         0.357766      0.420570      0.456946
O       3.78767      9.46695     11.26052         0.247866      0.248283     -0.295107
O       0.00271      9.63647     11.18396         0.219774     -0.398074     -0.287229
O       7.55381      1.78851      2.55172         1.560284      0.349877      0.479796
O       7.57555      1.83353     15.34137         0.593303      0.002249     -0.407977
O       7.63003     13.27790      2.64868         0.078105     -0.575683      0.040610
O       7.46072     13.18586     15.28086         1.218651      0.186249     -0.065709
O       7.57486      2.04433      6.94656         0.523818     -0.528331     -0.156819
O       7.62642     13.35281      7.04799        -0.128487     -0.439585     -0.481414
O       7.50309      2.09185     10.89327         0.874367     -0.381672      0.551412
O       7.57795     13.27695     11.01326         0.303760     -0.491397      0.313141
O       7.63071      5.55557      2.55680        -1.448797      0.262028      0.006627
O       7.68253      5.59138     15.28346        -1.807417      0.101916      0.099837
O       7.63055      5.68908      6.97124        -0.232012     -0.401771      0.119696
O       7.67349      5.63054     11.15146        -0.584838      0.444286     -0.355734
O       7.50481      9.34764      2.52661         0.321649      0.146188     -0.228184
O       7.55260      9.37343     15.25966         0.100572      0.038714      0.321835
O       7.53438      9.41099      6.89127         1.504843      0.444379      0.502748
O       7.65299      9.60625     11.06399        -0.606360     -0.171121     -0.412700
O      11.30304      1.78773      2.75306         1.345908      0.279598     -0.508717
O      11.37191      1.84920     15.44017         0.357657     -0.099710     -0.488519
O      11.36822     13.18944      2.57575        -0.509510     -0.054099      0.074367
O      11.28593     13.19500     15.46059         0.479056      0.531358     -0.273564
O      11.40194      1.91979      7.05158         0.220374     -0.065146     -0.591578
O      11.40181     13.20302      6.70378        -0.596237      0.635919      0.473267
O      11.41782      1.91929     10.90536        -0.192694     -0.334487      0.047221
O      11.40842     13.48143     10.98306        -0.070088     -0.740982      0.201310
O      11.35360      5.61693      2.55429         1.233301      0.150573      0.264396
O      11.31227      5.68870     15.43649         2.151911     -0.228781      0.154774
O      11.48444      5.76704      6.90288        -1.126284     -0.023597      0.063057
O      11.48808      5.73793     11.16362        -1.011308     -0.538152     -0.301867
O      11.41893      9.39130      2.73012        -1.155938     -0.290895     -0.571863
O      11.36776      9.35808     15.39829        -0.725711      0.233760     -0.227407
O      11.39482      9.45723      6.94387        -0.080283     -0.322062     -0.648723
O      11.51759      9.47704     11.13049        -1.407593      0.502732      0.027745
O       1.92834      3.69690      2.52905         0.076373     -0.722406      0.230774
O       1.72022      3.67980     15.38966         0.526212     -0.092187     -0.061215
O       1.93576     15.07204      2.62141         0.219375     -0.145312      0.091904
O       1.72655     15.10823     15.39610         0.409647      0.087360     -0.508176
O      13.31466      3.66654      2.59166         0.038851      0.956174      0.049556
O      13.36715      3.75186     15.26420        -0.924066     -0.495209      0.367068
O      13.25919     15.09071      2.62520         0.065789      0.645900      0.224385
O      13.33341     15.16680     15.34177        -0.896990      0.074373      0.052092
O       1.94918      3.79895      6.78535         0.252980     -0.312264      0.209303
O       1.92922     15.15697      6.77727         0.145348      0.701204     -0.321315
O      13.34093      3.83701      6.96746        -0.284459     -0.758912     -0.067734
O      13.25602     15.19152      6.69630         0.114123     -0.334773      0.298269
O       1.88895      3.80449     10.91786        -0.029738     -0.685437      0.166649
O       1.82787      0.04017     11.22625        -0.086819     -0.687802     -0.814729
O      13.38225      3.83989     10.89286        -0.240110     -0.704406      0.202925
O      13.33897      0.01387     11.02158        -0.166153      0.302528      0.189418
O       1.86260      7.49574      2.60923         0.254622     -0.021361     -0.236564
O       1.64410      7.48549     15.21513         0.998214     -0.097557      0.054611
O      13.46651      7.49793      2.69317        -0.456375     -0.336058     -0.692521
O      13.33542      7.51662     15.31580        -0.307045      0.336142      0.367820
O       1.90976      7.62484      6.89307         0.320311     -0.442713     -0.878142
O      13.41235      7.58130      6.78735        -0.284952      0.253430      0.126929
O       1.81266      7.64979     11.24873         0.595330     -0.048616     -0.212107
O      13.23481      7.67197     11.12723         0.779486     -0.008358      0.237315
O       2.06700     11.29437      2.40185        -0.582648      0.296470      0.391662
O       1.88015     11.33709     15.32655         0.003138     -0.041034      0.007895
O      13.24152     11.33463      2.75392         0.426453      0.037108     -0.413723
O      13.15467     11.33344     15.48583         0.234306     -0.013311     -0.378011
O       1.99727     11.39208      6.89504         0.067528     -0.101449     -0.350324
O      13.23108     11.36997      6.67433         0.561550      0.059032      0.309023
O       1.93880     11.38407     11.18247        -0.027795      1.976767     -0.537009
O      13.24933     11.44076     11.05587         0.019598      0.379673     -0.129911
O       5.66347      3.80239      2.47124         0.462486     -1.424160      0.298821
O       5.71467      3.66955     15.27758        -0.332042      0.746801      0.036165
O       5.77431     15.14009      2.67628        -0.116491     -1.505394     -0.330862
O       5.63047     15.05631     15.35126         0.200965      0.279976     -0.141657
O       5.68113      3.74798      6.99786        -0.319569      1.279769     -0.215366
O       5.80496     15.12952      6.82080        -0.549745      1.010368      0.083761
O       5.59327      3.86774     11.15890         0.145829     -1.274336     -0.266047
O       5.77972      0.00371     11.16612        -0.146742      0.235437     -0.295089
O       5.71810      7.43355      2.60937        -0.383517      1.221288     -0.617175
O       5.69479      7.53014     15.08773        -0.146063     -0.935344      0.122260
O       5.75029      7.55485      7.03844        -0.447674     -0.307257     -0.536635
O       5.72127      7.68445     11.26604        -0.370267     -0.618890     -0.460120
O       5.79390     11.22079      2.45802        -0.316244      0.414667      0.375097
O       5.61414     11.25892     15.17449         0.063105      1.202826      1.003170
O       5.72649     11.39853      6.93803         0.008101     -0.559396      0.023362
O       5.55047     11.45364     10.96800         0.067601     -0.344858      0.194608
O       9.50152      3.75842      2.57310        -0.011538     -1.262336      0.564003
O       9.56376      3.78489     15.06638        -0.046851     -1.242002      0.600008
O       9.55851     15.10417      2.53855        -0.501322     -0.247542      0.130436
O       9.44164      0.01287     15.32561         0.183651     -0.734856      0.238908
O       9.69659      3.76354      6.65644        -0.153895      0.503790      0.676509
O       9.56917      0.06587      6.98115        -0.300751     -1.397110     -0.360336
O       9.54022      3.75541     11.23448         0.040290      0.061938     -0.580493
O       9.38649     15.13896     10.89082        -0.063294      1.322833      0.409670
O       9.41150      7.46512      2.54802         0.541657      0.949285      0.142440
O       9.51206      7.55734     15.30982        -0.377231      1.035689      0.426815
O       9.45850      7.60577      7.03209         0.335617     -0.322224     -0.060416
O       9.62147      7.58828     10.91209        -0.544539      0.565981      0.220333
O       9.45206     11.28883      2.61157        -0.161929      0.793702      0.347750
O       9.38699     11.34659     15.27333         0.079697     -0.365652      0.144222
O       9.41244     11.32834      6.83953         0.003291      0.901491     -0.293075
O       9.55819     11.42325     11.16073        -0.003150      0.136012     -0.414449
