  # total energy = -7881.93171434 
CRSYTAL
PRIMVEC
    15.3600000000000000    0.0000000000000000    0.0000000000000000
     0.0000000000000000   15.3600000000000000    0.0000000000000000
     0.0000000000000000    0.0000000000000000    17.440000000000000
PRESSURE
1.11677 0.692332 0.810785 0.063942 0.458293 0.007249
PRIMCOORD
320 1
Pb       3.73565      3.84225      4.27971         0.475903      0.076151      0.451676
Pb       3.80639      3.84261     17.35993         0.377251      0.015042     -0.663126
Pb       3.81368      0.02714      4.24651         0.341565     -0.433575      0.146630
Pb       3.77992      0.06696      0.05104         0.392991     -0.295324     -0.803677
Pb      15.31079      3.78928      4.36176         0.200163      0.501637     -0.637200
Pb      15.33857      3.89619     17.40429         0.016927      0.278261     -0.301530
Pb      15.27082     15.26761      4.29659         0.183268      0.440544     -0.164372
Pb      15.27796     15.29446      0.02621        -0.033916     -0.415122     -0.279849
Pb       3.80257      3.76509      8.75276         0.180593     -0.071442     -0.571082
Pb       3.85803     15.31680      8.72748        -0.076459     -0.054023     -0.538943
Pb       0.01952      3.72281      8.69724         0.050856      0.550112     -0.625210
Pb      15.35600      0.03617      8.65548        -0.022049     -0.297211     -0.026518
Pb       3.65460      3.85306     13.03025         1.106732     -0.950120      0.951433
Pb       3.77934     15.24383     13.11285         0.261008      0.664588      0.089217
Pb      15.30440      3.80795     13.03867         0.215148      0.470993      0.167361
Pb       0.03573      0.03330     13.01566        -0.065320     -0.726957     -0.270810
Pb       3.82244      7.62643      4.27864         0.103720      0.203182     -0.057448
Pb       3.76669      7.66507     17.38026         0.082226      0.223279      0.083772
Pb      15.33609      7.65748      4.39104        -0.047382     -0.089099     -0.960392
Pb      15.22565      7.71415     17.33727         0.420919      0.048512      0.089399
Pb       3.93986      7.59677      8.77439        -0.894477      0.433003     -0.159846
Pb       0.05530      7.62091      8.73952         0.064591     -0.380007     -0.919649
Pb       3.76925      7.67797     13.01507         0.563772      0.224508     -0.086763
Pb       0.04983      7.65269     13.01196        -0.381602     -0.021186     -0.056664
Pb       3.75689     11.51013      4.24152         0.155886      0.154514      0.194174
Pb       3.91224     11.48320     17.43637        -0.437932      0.021617     -0.406691
Pb      15.29530     11.55559      4.31946         0.557393     -0.699393     -0.540988
Pb      15.32252     11.52622     17.37817         0.678323     -0.239632      0.093824
Pb       3.75883     11.54444      8.64304         0.389522     -0.202024     -0.159507
Pb      15.30459     11.39897      8.65145         0.277000      0.618000     -0.544993
Pb       3.79172     11.54550     13.11220         0.827591     -0.235468     -0.072088
Pb      15.30112     11.49696     13.15288         0.263377      0.289228     -0.311390
Pb       7.68441      3.77907      4.42753        -0.220466      0.508872     -0.672823
Pb       7.63485      3.90527     17.32469         0.451030     -0.444970     -0.409092
Pb       7.71628      0.09693      4.24029        -0.947349     -0.417197      0.317842
Pb       7.72042      0.01325     17.41576        -0.219135      0.218251     -0.405259
Pb       7.72601      3.66541      8.76779        -0.688708      0.659108      0.060286
Pb       7.62491     15.20706      8.63599         0.106749      0.246079     -0.008860
Pb       7.66106      3.79958     13.19643        -0.239242     -0.464496     -0.543202
Pb       7.57522     15.33052     13.14113         0.380006     -0.006751     -0.289841
Pb       7.60768      7.64613      4.31219         0.381981     -0.366385     -0.072372
Pb       7.75266      7.62749     17.41018        -0.220459      0.503955     -0.419359
Pb       7.54779      7.69621      8.67993         0.644694     -0.116129     -0.243839
Pb       7.53603      7.62253     12.99794         0.244805      0.164502     -0.433590
Pb       7.67447     11.52407      4.34285        -0.256305      0.208377     -0.558173
Pb       7.75878     11.50357      0.07601        -0.210388     -0.585343     -0.553736
Pb       7.53145     11.43675      8.66738         0.524571     -0.044033     -0.180646
Pb       7.62277     11.39700     13.10584        -0.035597      0.308081     -0.334757
Pb      11.44574      3.81868      4.38593         0.209798      0.244165     -0.470800
Pb      11.58018      3.82694     17.35476        -0.788875      0.144662     -0.472488
Pb      11.37913      0.01177      4.28320         0.481984      0.038255     -0.263671
Pb      11.59429     15.34333     17.37286         0.060217     -0.265879     -0.062066
Pb      11.46591      3.81835      8.73417         0.188085     -0.000060     -0.127025
Pb      11.49992     15.22353      8.64776         0.212858      0.381100     -0.262109
Pb      11.53745      3.82799     13.08930        -0.457864      0.058869     -0.241762
Pb      11.57150     15.33499     12.94310        -0.091205     -0.050159      0.021835
Pb      11.42217      7.79304      4.31285         0.413964     -1.042904      0.000618
Pb      11.56957      7.58682     17.41114        -0.251337      0.510538     -0.607855
Pb      11.41730      7.60485      8.73172        -0.289914     -0.187570     -0.617176
Pb      11.54220      7.72895     12.89050        -0.596792     -0.297708      0.474257
Pb      11.50306     11.47620      4.44215         0.124827      0.253965     -0.961507
Pb      11.55274     11.51148      0.00837        -0.239400     -0.280189     -0.233505
Pb      11.51994     11.53118      8.72457        -0.314775     -0.109326     -0.937665
Pb      11.45882     11.44913     12.99599        -0.669717      0.346743     -0.108779
Ti       1.93814      1.93858      2.22319        -0.508157      0.291197      1.509807
Ti       1.84802      1.89975     15.44823         1.085036      0.442782     -0.062364
Ti       1.91501     13.50040      2.32601         0.358264     -1.074720     -1.726812
Ti       1.97616     13.44435     15.39440         0.097620     -0.291430      1.161631
Ti      13.50170      1.87652      2.28889        -1.080077      0.064350      1.036224
Ti      13.43536      1.92090     15.35291         0.116198     -0.654089      0.451318
Ti      13.43212     13.37795      2.34273        -0.114958      0.163787     -1.015541
Ti      13.46765     13.37817     15.35662         0.232951      0.526296      1.093097
Ti       1.87771      1.85950      6.62573         0.432504      0.800668      0.040284
Ti       1.92046     13.41032      6.65828         1.148731     -0.129475     -0.185886
Ti      13.40032      1.98248      6.61692        -0.071711     -0.684972      1.726428
Ti      13.51260     13.48138      6.60513        -0.681385     -0.163766     -0.012592
Ti       1.85907      1.92481     11.03384         1.930078     -0.514303     -0.537053
Ti       2.03913     13.45715     11.02924        -2.267644      0.647898      0.354142
Ti      13.46621      1.95774     10.99194        -0.489784     -0.855906     -0.920080
Ti      13.47033     13.37428     11.02371         0.882988      1.950081      0.653047
Ti       1.92434      5.75905      2.31614        -1.373799     -0.107762      0.265889
Ti       1.91135      5.78006     15.38246        -0.417912      0.028742      0.565813
Ti      13.35682      5.74708      2.28972         1.790982      0.192197      1.305170
Ti      13.42831      5.70462     15.28499        -0.178704      1.243712     -0.247974
Ti       1.98064      5.70443      6.58555        -1.645953      0.110524      1.514740
Ti      13.47316      5.72353      6.72042        -0.167345      0.763129     -0.018010
Ti       1.95636      5.73405     11.04439        -0.577244     -0.002719     -0.975379
Ti      13.41595      5.77474     11.07662        -0.002077     -0.050071      1.284074
Ti       1.95422      9.56509      2.30852        -0.438580     -0.188416     -0.169333
Ti       1.95321      9.57787     15.33971         0.039458      0.584767      3.804204
Ti      13.42280      9.51271      2.30733         0.760269      0.717984      1.832471
Ti      13.42930      9.62766     15.31584         0.032927     -1.324666      1.309223
Ti       1.89553      9.52754      6.64861         0.257537      0.847519      0.599428
Ti      13.39638      9.55158      6.64426         0.567313      0.010458     -0.046608
Ti       1.85758      9.73298     11.04086         1.130338     -1.108040      0.362735
Ti      13.39893      9.63033     10.96280         0.456073     -0.256761      1.074161
Ti       5.70101      2.00031      2.28044         0.806128     -0.870080     -0.358060
Ti       5.76964      1.89024     15.37668        -0.667883      0.663847     -0.459962
Ti       5.74305     13.47750      2.23587        -0.324354     -0.104056      0.045189
Ti       5.82152     13.41917     15.54911        -1.142607     -0.233437     -1.653706
Ti       5.70932      1.94351      6.64004         0.307031      0.182165      0.825563
Ti       5.78692     13.42282      6.56364        -0.489849      0.133923      0.233444
Ti       5.74433      1.83033     11.08357         0.118669      1.427603      0.701621
Ti       5.84309     13.39384     11.09658        -0.521087     -0.692668      0.507385
Ti       5.77629      5.76127      2.27416         0.102601     -0.053156      1.654797
Ti       5.75828      5.76518     15.33230        -0.267064     -0.118565      0.033864
Ti       5.63385      5.83159      6.73148         1.896273     -1.756952      0.155799
Ti       5.69707      5.62423     11.07245         1.612420      0.276805      1.986024
Ti       5.77525      9.61877      2.34509        -0.033348     -0.183630      0.272441
Ti       5.80246      9.56802     15.39703        -0.041475     -0.224413      0.009821
Ti       5.64455      9.65260      6.55028         0.615174     -0.106651      0.688715
Ti       5.68433      9.57880     10.98130         0.330919      0.506325      2.386329
Ti       9.56787      1.95423      2.28503         0.132156      0.581115     -1.360661
Ti       9.69444      1.81218     15.38244        -1.435137      1.123713      0.411865
Ti       9.56565     13.49076      2.23192         0.371217     -0.819403     -0.650650
Ti       9.61808     13.32937     15.40530        -0.116705      0.210518     -0.155475
Ti       9.56557      1.87566      6.75078         0.314300     -0.613777      0.385637
Ti       9.62661     13.36339      6.59851        -0.350900      0.119528      0.777704
Ti       9.67204      1.86809     11.05987        -1.685186      0.562381     -0.523539
Ti       9.56953     13.42055     11.00417        -0.453986     -0.490853      1.161836
Ti       9.66229      5.77493      2.27908        -0.995391      0.141177      0.463243
Ti       9.53910      5.82427     15.24656         0.965368     -0.872710     -0.344360
Ti       9.55681      5.68311      6.71609        -0.006782      1.908247     -1.145455
Ti       9.55760      5.73202     11.14034        -0.788636      0.046452     -0.055931
Ti       9.59883      9.64413      2.34084         0.295613     -0.562058     -0.599476
Ti       9.64859      9.56272     15.32613        -0.693156     -0.076322      1.333787
Ti       9.63375      9.58164      6.49734        -1.167935     -0.185561      2.805444
Ti       9.50709      9.58828     10.93516        -0.772938     -0.229476      0.446208
O       2.10449      1.98916      0.49464        -0.571719     -0.074331     -0.826664
O       1.84909      2.11540     13.71407        -0.330419     -0.726103     -0.506094
O       1.97785     13.57060      0.47362        -0.167303     -0.293788      1.781077
O       1.83179     13.59527     13.64945         0.251217     -0.542773     -0.956297
O      13.32267      1.71239      0.58833         0.027353      0.661712     -1.740414
O      13.48694      2.05295     13.60940        -0.107281     -0.527407     -0.534668
O      13.61951     13.35476      0.55356        -0.479965      0.351379     -0.300364
O      13.55455     13.50297     13.63768        -0.028009     -0.165546     -1.000581
O       1.85338      2.02288      4.87767         0.041648     -0.635741     -0.377056
O       2.09638     13.32169      4.89234        -0.879965      0.565748     -0.172794
O      13.51926      1.94218      4.89897        -0.130300      0.001496     -1.559839
O      13.56109     13.49986      4.81005        -0.465095     -0.255894      0.081674
O       2.01985      1.85335      9.23536        -0.566572      0.334901      0.552615
O       1.96685     13.61426      9.28530         0.212011     -0.570996     -0.287034
O      13.48619      2.00795      9.18217        -0.134262     -0.173435      0.992884
O      13.44923     13.46451      9.27913        -0.215774     -0.380264     -0.690794
O       1.88561      5.79760      0.56882         0.004988     -0.317571     -0.850071
O       1.87963      5.72439     13.62511         0.007850      0.382933     -0.392126
O      13.42584      5.83399      0.55324        -0.382440     -0.435502     -1.254188
O      13.52830      5.70151     13.51134        -0.324610      0.136061     -0.069065
O       1.84609      5.74728      4.86172         0.428460     -0.073297     -0.964860
O      13.29976      5.69693      4.99463         0.446385     -0.092602     -0.801107
O       2.02327      5.65294      9.24835        -0.338515      0.274342      0.922803
O      13.48067      5.74425      9.37314        -0.168065      0.083388     -1.786278
O       2.00467      9.44661      0.54670        -0.109670      0.252262      0.569853
O       1.92086      9.55812     13.65924        -0.012689      0.078716     -2.778615
O      13.56184      9.51977      0.62540        -0.320663      0.008040     -2.823844
O      13.40396      9.49797     13.60929         0.010651      0.648958     -1.608976
O       2.02634      9.65957      4.91688        -0.456147     -0.369462     -0.603527
O      13.40024      9.60142      4.85978        -0.091908      0.145838      0.084822
O       2.00948      9.70961      9.29456        -0.815986     -0.006874     -0.033698
O      13.59401      9.80255      9.23608        -0.540623     -0.450983     -0.547706
O       5.63633      1.99711      0.50168         0.382602     -0.038877      0.554299
O       5.80298      2.16809     13.61398         0.039190     -1.385660      0.238464
O       5.65661     13.57913      0.46134         0.138591     -0.444981     -0.191641
O       5.91727     13.32112     13.70400        -0.379409      0.267474      0.500226
O       5.92521      1.82572      4.89175        -0.326443      0.445103     -0.096566
O       5.77766     13.36496      4.81070         0.006215      0.137900     -0.021125
O       5.64543      1.94545      9.31142         0.362614     -0.284391      0.194193
O       5.84926     13.54631      9.35819        -0.249568     -0.205691     -0.807807
O       5.79410      5.78329      0.56164         0.136669     -0.057626     -0.911700
O       5.74441      5.80023     13.57549         0.076352     -0.122153     -0.425542
O       5.74094      5.73455      5.00225         0.048686      0.156387     -0.669537
O       5.53520      5.71305      9.37811         0.033456     -0.013419     -2.126995
O       5.85257      9.48610      0.63111        -0.044855     -0.179105     -1.440757
O       5.69261      9.64631     13.64667         0.078775      0.024699     -0.513978
O       5.68091      9.64042      4.78924         0.158397     -0.011463      0.080151
O       5.70707      9.72493      9.28813         0.107099     -0.428903     -2.252294
O       9.33704      1.99968      0.48656         1.150480     -0.266724      0.608016
O       9.82914      1.80519     13.67725        -0.447874      0.106842     -1.441925
O       9.62931     13.44792      0.42115        -0.197520      0.007753      1.048454
O       9.45473     13.24907     13.65866         0.474878      0.352932     -0.003440
O       9.62693      1.86581      4.98228        -0.333072      0.033523     -0.440382
O       9.60572     13.35096      4.86296         0.195676      0.207965     -1.484562
O       9.60946      2.00048      9.24083         0.450435     -0.127033      0.396903
O       9.59329     13.29115      9.27314         0.252479      0.329625     -1.068346
O       9.59916      5.72543      0.51255         0.285950      0.006469      0.075744
O       9.53533      5.97158     13.45589        -0.051603     -0.347926      0.699424
O       9.69837      5.79980      4.91546        -0.450973     -0.730570      0.893981
O       9.64592      5.78938      9.38010         0.277288     -0.102160     -1.754507
O       9.64433      9.59165      0.58922        -0.345544      0.158706     -0.415692
O       9.63873      9.65246     13.59788         0.309997     -0.243578     -0.909645
O       9.64600      9.65751      4.76600         0.270552      0.292772     -1.380635
O       9.40467      9.61587      9.15698         0.584392     -0.053828      0.494741
O       3.85142      1.89000      2.70805        -0.037556      0.052564      0.150114
O       3.84736      1.93641     15.69808        -0.921894      0.592068      0.581022
O       3.85159     13.50914      2.71899        -0.419308     -0.057703     -0.108057
O       3.83388     13.27121     15.66615         0.574787      0.552034      0.392361
O       0.03223      1.90960      2.51945         0.764740      0.406075      0.343602
O      15.23933      1.86091     15.87193         1.324533      0.054022      0.143615
O      15.34455     13.41516      2.72526         0.948084     -0.172955      0.334597
O       0.11010     13.30464     15.83870        -1.209681      0.628012     -0.119428
O       3.84707      1.96232      6.94201         0.126915     -0.315911      0.170466
O       3.81024     13.43992      7.04493         1.058868      0.210038      0.307272
O      15.34323      1.88612      7.04507         0.203738      0.258725      0.246465
O       0.04151     13.49535      6.95382        -0.671764      0.133860      0.331828
O       3.80793      1.94444     11.49634         0.339712      0.314999     -0.096164
O       3.82996     13.40690     11.46775         0.837206     -0.154597      0.364878
O       0.01093      1.95887     11.36971        -0.310928     -0.219728      0.074154
O       0.04813     13.66536     11.37560        -0.143181     -1.111933      0.204694
O       3.78726      5.76425      2.68524         1.689963     -0.294425      0.203457
O       3.82488      5.72229     15.74326        -0.088648      0.149222      0.052505
O      15.33976      5.72123      2.67008         0.042472     -0.097252      0.544275
O      15.27775      5.65387     15.70797         0.650935      0.515568      0.531847
O       3.80022      5.75937      7.09678         0.131377     -0.129734      0.123466
O       0.02627      5.75360      7.01648         0.381483      0.169928      0.542190
O       3.83020      5.57178     11.47464        -0.765329      0.605069     -0.006686
O      15.31378      5.85227     11.42382         0.719292     -0.406353     -0.092462
O       3.88032      9.56076      2.65641        -0.682586     -0.224171      0.343328
O       3.92323      9.40458     15.75101        -0.620974      0.554512      0.332097
O       0.05545      9.55028      2.69782         0.002509      0.293950      0.560090
O       0.01817      9.55683     15.79413        -0.029003      0.324866     -0.340126
O       3.79562      9.61569      7.05134         0.627203      0.304992      0.174523
O      15.31093      9.63848      7.00571         0.935989      0.092255      0.393782
O       3.82781      9.77817     11.42435        -1.165073     -0.578748      0.331973
O      15.30090      9.58122     11.51458         0.850917      0.166333     -0.362515
O       7.70541      1.93731      2.78351        -0.529457      0.450594     -0.104104
O       7.63487      1.88566     15.66470         1.189939     -0.351301      0.484143
O       7.64258     13.44844      2.54030         0.850733     -0.301100      0.278848
O       7.66184     13.52464     15.85998         1.025001     -0.613257      0.388288
O       7.65893      1.90365      7.24246         0.565914     -0.139677     -0.654076
O       7.71287     13.37382      6.91445        -0.042767      0.210807      0.543305
O       7.75709      1.80872     11.50799        -0.757769      0.455146     -0.076914
O       7.65424     13.30045     11.39478         0.762492      1.022062      0.387802
O       7.77357      5.73578      2.77594        -0.751686     -0.052351     -0.124760
O       7.70250      5.68707     15.66225        -0.184207      0.465615      0.355224
O       7.57576      5.82275      7.21569         1.354757     -0.076277     -0.283322
O       7.64709      5.87444     11.27511        -0.984434     -0.391900      0.669550
O       7.68353      9.66373      2.67905         0.389059     -0.308011      0.632080
O       7.71729      9.55512     15.71415         0.422819      0.116787      0.460621
O       7.59461      9.63230      6.87680         0.403919     -0.016333      0.175423
O       7.64183      9.58029     11.41026        -0.004360     -0.175945     -0.087656
O      11.56394      1.75771      2.71266        -0.948551      0.439153      0.123055
O      11.55877      1.85767     15.71075        -0.060435      0.054914      1.049661
O      11.52795     13.46751      2.52691        -0.845305      0.718521      0.686474
O      11.55087     13.23938     15.73117         0.208087      0.513801      0.076121
O      11.52167      2.01970      7.02340        -0.196771     -0.156073      0.242482
O      11.53737     13.45301      6.93821         0.619940     -0.162411      0.594425
O      11.53741      1.93130     11.44726         0.512570     -0.419061     -0.063842
O      11.46973     13.48420     11.40400         0.981346     -0.461503      0.089617
O      11.52426      5.82165      2.69946        -0.248405     -0.376373      0.117589
O      11.56519      5.78551     15.55373        -0.593677     -0.164850      0.796980
O      11.50057      5.91442      7.09034        -0.154462     -0.721504      0.752098
O      11.43729      5.80590     11.43419         1.919570     -0.042652      0.295454
O      11.55202      9.42968      2.61023        -0.538926      1.067732      0.520514
O      11.51162      9.60418     15.81722         0.663537      0.057353      0.016285
O      11.54533      9.63818      7.06305        -0.321430     -0.133808      0.020728
O      11.48242      9.67236     11.34020         0.322672      0.016170     -0.281565
O       2.02926      3.80772      2.80459        -0.848708     -0.296692     -0.855504
O       1.76674      3.89621     15.78789         0.576104     -0.626189      0.618116
O       1.93258     15.35865      2.68851        -0.117262      0.627298      0.161061
O       2.05971      0.01146     15.70441        -0.712925      0.180820      0.382862
O      13.42798      3.84926      2.63605        -0.300002     -0.559067      0.216262
O      13.34832      3.77725     15.80655         0.359295      0.483362      0.178821
O      13.59945     15.34277      2.58231        -0.276279     -0.350891      0.938151
O      13.41927     15.25455     15.84407         0.085829      0.391736     -0.125288
O       1.92015      3.84640      6.94723        -0.021823     -0.537800      0.547889
O       1.97862      0.01739      7.10289        -0.267298     -0.189017     -0.293555
O      13.50117      3.86700      7.12308        -0.256173     -0.396614      0.042733
O      13.40432      0.05233      6.99697         0.050216     -0.658829      0.304136
O       1.85575      3.81485     11.48220        -0.205034      0.194616     -0.406615
O       2.06806      0.03277     11.47374        -0.619298      0.167620      0.181285
O      13.37827      3.80050     11.43218         0.252823      0.746672     -0.075674
O      13.53185      0.01207     11.37892        -0.928457      0.565108      0.312274
O       1.98404      7.59677      2.79067        -0.419143      1.269035      0.065259
O       1.95891      7.71196     15.83436        -0.542174     -1.335414     -0.389465
O      13.49882      7.67777      2.69784        -0.010010     -1.052364      0.563257
O      13.46213      7.70312     15.66551        -0.089350     -0.737759      0.531966
O       1.98644      7.69139      7.09049        -0.565912     -0.388844      0.059249
O      13.58910      7.68551      7.05013        -0.565615      0.226174      0.504770
O       2.01849      7.61973     11.34853        -0.239032      0.844401      0.287291
O      13.42007      7.77109     11.33155        -0.274811     -0.612152      0.006564
O       1.93272     11.54732      2.74491         0.018535     -0.248290     -0.458476
O       2.04454     11.46330     15.87261        -0.407957     -0.469161     -0.502645
O      13.31718     11.50250      2.54586         0.498992     -0.229657      1.177308
O      13.52759     11.47723     15.70342        -0.083250      0.285664      0.312527
O       1.97570     11.52910      7.09351        -0.661554     -0.080526      0.158652
O      13.47178     11.57068      7.02120        -0.084804      0.096328      0.070778
O       1.86249     11.53003     11.57736        -0.378464      0.742691     -0.388968
O      13.54085     11.55788     11.50542        -0.336157     -0.463103     -0.145922
O       5.77072      3.85330      2.73095         0.004453     -0.002761      0.094632
O       5.81036      3.84108     15.79452        -0.308861      0.384468      0.278648
O       5.79471      0.00873      2.60684        -0.039381      0.748863      0.461952
O       5.67013     15.33806     15.77369         0.171232      0.004951      0.013110
O       5.84561      3.83833      7.16367        -0.583300     -0.390332     -0.354305
O       5.86511     15.28778      7.06326        -0.553864      0.655704     -0.055470
O       5.90313      3.79009     11.62368        -0.465919      0.097557     -1.194809
O       5.74134     15.34968     11.53823        -0.004035     -0.429016      0.130851
O       5.80715      7.60477      2.81881        -0.154130      0.208782     -0.207459
O       5.92782      7.63112     15.65351        -0.377182     -0.261811      0.652265
O       5.67891      7.70395      7.11054        -0.078111      0.634870      0.019448
O       5.58942      7.69078     11.37370        -0.015545     -0.446121      0.163375
O       5.71262     11.52419      2.51185         0.182064      0.488807      0.412157
O       5.74654     11.45493     15.94021         0.546741      0.222597      0.109378
O       5.78163     11.55127      7.11397        -0.688452     -0.311193     -0.443268
O       5.81326     11.47579     11.39878        -0.440514      0.725976      0.362379
O       9.66315      3.79913      2.74388         0.242137      0.351772      0.131923
O       9.59798      3.90020     15.60070         0.504098     -0.549300      0.488768
O       9.46736      0.06251      2.66101         0.836641     -1.156384      0.037507
O       9.67433     15.29579     15.65859        -0.070577     -0.149120      0.723200
O       9.63628      3.84678      7.02082        -0.394951     -0.173211      0.322180
O       9.70199     15.33040      7.06013        -0.473589      0.085436      0.157588
O       9.59674      3.80716     11.53480         0.031413     -0.217562     -0.036785
O       9.52953     15.35029     11.36235         0.668863     -0.737968      0.291272
O       9.68407      7.70096      2.67895        -0.915057     -0.546675      0.146063
O       9.63829      7.64279     15.90442        -0.093073      0.215586     -0.462563
O       9.60752      7.74775      6.85476        -0.116518     -0.291975      0.853238
O       9.48282      7.66527     11.36223         0.989742      1.620036      0.096017
O       9.64375     11.54926      2.63506         0.075751      0.560311      0.358367
O       9.60239     11.43486     15.83279        -0.331922      0.522145      0.297717
O       9.66985     11.50096      6.96294         0.063636     -0.273418      0.117032
O       9.53276     11.51408     11.46317         0.616132     -0.478957     -0.190047
