  # total energy = -7880.06424139 
CRSYTAL
PRIMVEC
    15.3600000000000000    0.0000000000000000    0.0000000000000000
     0.0000000000000000   15.3600000000000000    0.0000000000000000
     0.0000000000000000    0.0000000000000000    17.440000000000000
PRESSURE
2.97664 2.95351 3.21804 0.221957 0.057728 0.010383
PRIMCOORD
320 1
Pb       3.79833      3.87033      4.21826         0.036473     -0.401816      0.534271
Pb       3.77021      3.89824     17.33367         0.107302     -0.132062     -0.048186
Pb       3.85032      0.01249      4.21876         0.302143     -0.223760      0.383258
Pb       3.96490      0.06995      0.01992        -0.633341     -0.435409      0.247014
Pb      15.21685      3.91092      4.27852         0.723305     -0.173431      0.457370
Pb      15.20956      3.76545     17.38982         0.209438      0.249485     -0.114622
Pb      15.23030     15.30499      4.30893         0.226150     -0.315139      0.744752
Pb       0.06321     15.34587      0.00315        -0.057295      0.188122     -0.205998
Pb       3.92333      3.87894      8.58726         0.067728     -0.676497      0.967492
Pb       3.77185     15.25734      8.78007         0.562474      0.179382     -0.461753
Pb       0.13964      3.67258      8.65595        -0.436113      0.376800      0.234606
Pb       0.16554     15.31666      8.58252        -0.814056     -0.194681      0.292885
Pb       3.82933      3.94210     13.08151        -0.395742     -0.525110     -0.068218
Pb       3.97813     15.29130     13.24807        -0.556281      0.693000     -0.429813
Pb      15.23166      3.85558     12.97331         0.657132      0.413820      0.209323
Pb      15.34373      0.05192     12.99259        -0.250293     -0.671374      0.027743
Pb       3.80653      7.64249      4.28462        -0.068397      0.003629      0.012337
Pb       3.83057      7.78056      0.01055         0.008875     -0.606032     -0.611715
Pb      15.20945      7.45628      4.30569         0.303988      0.570697      0.501471
Pb       0.14973      7.69247     17.39986        -0.343367     -0.702736     -0.256011
Pb       3.84253      7.53419      8.68631        -0.190216      1.348811      0.606056
Pb      15.32102      7.67866      8.68098         0.391388     -0.192415      0.215668
Pb       3.79713      7.81718     13.08536         0.227391     -0.049598     -0.174264
Pb       0.00410      7.73351     12.90544        -0.102523     -0.162508      0.146495
Pb       3.82534     11.41736      4.32480        -0.568760      0.491757      0.086929
Pb       3.74731     11.41037     17.42425         0.758119      0.416530      0.331205
Pb       0.00196     11.43198      4.26456        -0.559607      0.329414      0.859530
Pb       0.08062     11.39124      0.05238        -0.520166      0.565537      0.293412
Pb       3.70492     11.50829      8.68247         0.602515     -0.330506     -0.078952
Pb       0.09053     11.55997      8.59766        -0.863524      0.101133      0.472259
Pb       3.74286     11.57912     13.00709         0.116122     -0.469821      0.335465
Pb      15.14967     11.41881     13.05579         0.456019      0.472499     -0.431265
Pb       7.59483      3.93470      4.30536        -0.019667     -0.699459      0.104084
Pb       7.71076      3.84928     17.28600        -0.536518      0.134283      0.780501
Pb       7.59224      0.02040      4.17867        -0.116558      0.201387      0.409913
Pb       7.79780     15.28284     17.43300        -0.009601     -0.056647      0.399172
Pb       7.70537      3.72721      8.71185         0.211907     -0.063524     -0.085137
Pb       7.67522     15.35721      8.65595        -0.196074      0.249846      0.442527
Pb       7.49225      3.68097     13.05252         0.482172     -0.514952      0.649725
Pb       7.69329     15.07023     13.14633         0.088452      1.831430      0.473971
Pb       7.57275      7.75576      4.33766         0.633162     -0.248625      0.102546
Pb       7.79833      7.50605     17.38085        -0.577589      0.494223     -0.132160
Pb       7.58689      7.64978      8.68377         0.437481     -0.253123      0.214628
Pb       7.67909      7.61219     13.01099        -0.035140      0.264462      0.596252
Pb       7.66760     11.52460      4.25474         0.257069     -0.147648      0.540626
Pb       7.70975     11.45783     17.37743        -0.030926      0.354077      0.299778
Pb       7.74173     11.39547      8.77061        -0.612041      0.287828     -0.147735
Pb       7.57993     11.49160     13.09644         0.336501     -0.362898     -0.215045
Pb      11.54684      3.89374      4.38543        -0.175335     -0.142249      0.152131
Pb      11.27687      3.79202     17.27644         1.707014      0.159024      1.628037
Pb      11.43675      0.14704      4.26954         0.243752     -0.499133      0.276101
Pb      11.71113      0.03029     17.29605        -0.874447      0.187019      1.350276
Pb      11.65893      3.73057      8.71341        -0.648480      0.363277      0.117194
Pb      11.49634     15.26153      8.61944         0.243737      0.221233      0.352597
Pb      11.41038      3.90848     12.92797         0.965690     -0.361389      0.433893
Pb      11.43065     15.28962     13.05930         0.427716      0.317461     -0.329693
Pb      11.52135      7.70848      4.35059        -0.658681     -0.257988      0.682818
Pb      11.45800      7.63338     17.34716         0.258707     -0.290157      0.239528
Pb      11.43421      7.58766      8.67076         0.121401     -0.492271      0.468091
Pb      11.62237      7.73823     12.89411        -0.290242     -0.567276      0.604587
Pb      11.40105     11.55515      4.39549         0.209843     -0.023718      0.394161
Pb      11.65608     11.57058     17.42099        -0.716592     -0.041395      0.216803
Pb      11.35618     11.51719      8.75285         0.822262      0.612710      0.414843
Pb      11.37744     11.52962     13.01142         0.301065      0.119937      0.176095
Ti       1.89915      1.83861      2.35727        -0.207422      0.876930      0.270532
Ti       1.93672      1.88008     15.40554         0.081858      0.407901      0.450693
Ti       1.91237     13.41511      2.32505        -0.291723      0.197634      1.434749
Ti       1.90670     13.37165     15.58182         0.092543      1.421704     -1.989104
Ti      13.46897      1.96692      2.30679        -1.020171     -0.231494     -0.088275
Ti      13.41339      1.93505     15.31448         0.745892      1.247619     -0.886856
Ti      13.36304     13.42915      2.42026        -0.069252      0.491712     -0.392881
Ti      13.45275     13.41063     15.42900         0.382990      0.443540     -0.235604
Ti       2.05243      1.96359      6.69948        -0.418559     -0.833247     -1.217530
Ti       1.91551     13.45117      6.60644        -0.099805     -0.523509     -1.103758
Ti      13.45293      1.82579      6.73013         0.031486     -0.213727      1.709873
Ti      13.38283     13.35266      6.73955         0.382513     -0.203028      1.050214
Ti       1.92997      1.84960     11.17184         0.816755      0.849237     -0.783036
Ti       1.90164     13.41823     11.07609        -1.097420     -0.044489     -0.576918
Ti      13.47378      1.90807     11.04581        -0.936804     -0.511307      0.375867
Ti      13.39564     13.38403     10.99461         0.206969      1.042708      0.127598
Ti       1.88666      5.72511      2.21029        -0.371521     -0.245161     -0.447463
Ti       1.92815      5.74791     15.35651        -0.314172      0.147470      0.141722
Ti      13.30091      5.85441      2.33899         0.889418     -2.573998     -1.234418
Ti      13.46577      5.78093     15.42956        -0.005319     -0.445252     -0.101451
Ti       1.98589      5.82694      6.77925        -1.612642     -0.389426      0.275272
Ti      13.45716      5.71228      6.85329        -0.868675      0.006417     -0.858794
Ti       1.97884      5.77409     11.06997        -1.241770     -0.138068     -0.423230
Ti      13.42224      5.73794     10.98615        -0.016194      0.186623     -0.300550
Ti       1.81130      9.50803      2.38874        -0.102701      0.422635      1.006254
Ti       1.82485      9.65286     15.34008         1.267953     -1.664100     -0.311867
Ti      13.30440      9.63071      2.35042         0.453901      0.278639      1.045757
Ti      13.38523      9.62824     15.50343        -0.346878     -0.972342     -0.808890
Ti       1.83335      9.58793      6.64388         1.128423     -0.355090      0.442943
Ti      13.41034      9.55839      6.80742        -0.561694      1.000445      0.121654
Ti       1.87290      9.61319     10.94076         0.626775      0.742141      2.330499
Ti      13.36562      9.63242     10.87164         0.708427     -0.067536      1.321819
Ti       5.73341      1.94775      2.19989         0.607887     -0.392186      1.392954
Ti       5.83973      1.81415     15.55372        -0.465818      1.451750     -2.203728
Ti       5.75722     13.28733      2.39318         0.073807      1.913153     -1.258094
Ti       5.72222     13.40948     15.52908         0.792120     -0.313378      0.848078
Ti       5.77598      1.84503      6.67930         0.683379     -0.192951     -0.951235
Ti       5.74913     13.31772      6.71934        -0.616385      1.129046     -0.203022
Ti       5.69525      1.89512     11.04881         0.966493     -0.084009      0.845498
Ti       5.66185     13.52317     11.09992         0.554681     -1.202157     -1.250194
Ti       5.69223      5.74781      2.27343         0.736506      0.027704      0.658691
Ti       5.67593      5.74150     15.43837         0.482657      0.352457      1.161761
Ti       5.75035      5.77489      6.67943         0.897523     -0.908610     -0.594293
Ti       5.77482      5.79930     11.05860        -0.490520     -0.052319      1.465740
Ti       5.67358      9.55901      2.29496         0.613340      0.268800      0.044625
Ti       5.70694      9.61994     15.50609         0.285057     -0.893746     -0.160822
Ti       5.70842      9.56990      6.70517        -0.292641     -0.043186      2.576353
Ti       5.80626      9.59517     11.09426        -1.613509      0.134606     -0.390628
Ti       9.60658      1.89400      2.30934         0.159329      0.320307      0.421662
Ti       9.58013      1.92367     15.39348        -0.240965     -0.644021     -0.792281
Ti       9.58587     13.38088      2.35206         0.684532      0.612891      0.960407
Ti       9.66111     13.45576     15.51331        -1.076708     -0.475486     -0.197781
Ti       9.59687      1.95969      6.61719         0.421482      0.056401      0.103793
Ti       9.49928     13.49930      6.73086         1.013658     -0.838360     -1.273644
Ti       9.57881      1.94414     11.12581        -0.848834     -1.635745     -0.596805
Ti       9.49794     13.51226     11.08795         2.275984     -0.468007      0.319732
Ti       9.52614      5.69354      2.42397         0.799194      0.488777     -0.484333
Ti       9.62356      5.74081     15.31200        -0.167506     -0.105174      1.766814
Ti       9.51532      5.69402      6.72443         1.695704      0.251246      0.843656
Ti       9.49528      5.66052     11.06409         2.230913      0.838606     -2.555075
Ti       9.53864      9.53487      2.31452        -0.047562      0.079936      0.773651
Ti       9.57545      9.56749     15.36862        -0.193967      1.111577      0.659322
Ti       9.61132      9.51271      6.88294         0.112440      0.655587      0.535765
Ti       9.58802      9.55463     11.09444        -0.056026      0.152397      0.297804
O       1.64888      1.96447      0.65292         0.525422     -0.167631     -1.038215
O       2.12692      1.99922     13.69623        -0.483517     -0.748731     -1.103110
O       1.73625     13.40327      0.59827         0.466959     -0.318903     -1.445189
O       1.97997     13.37424     13.78627         0.167077     -0.053393      0.553902
O      13.46910      2.03950      0.53786         0.195195     -0.334471      0.325442
O      13.60437      1.98958     13.53091        -0.438487     -0.259482      0.868114
O      13.26399     13.47555      0.66018         0.122821     -0.259989     -1.055302
O      13.38575     13.26750     13.71478         0.161433      0.540006     -0.931005
O       2.13737      2.00933      4.95043        -0.113938     -0.357072     -0.146593
O       1.84859     13.45747      4.82452         0.234350      0.005617      0.518245
O      13.39875      1.86341      5.04226        -0.119888      0.249713     -2.076939
O      13.49097     13.39652      5.02944        -0.308207     -0.147050     -2.215262
O       1.94851      1.86696      9.40301        -0.100796      0.118620     -0.903749
O       1.76388     13.38288      9.29170         0.998178      0.193445     -0.355698
O      13.49752      1.85211      9.29342         0.046047      0.066599     -0.431828
O      13.43239     13.54614      9.27711         0.085189     -0.155612     -0.387780
O       1.89305      5.76482      0.43001        -0.080244     -0.066988      0.835330
O       1.85674      5.76024     13.58858         0.483799      0.406752     -0.609850
O      13.36854      5.66175      0.61322        -0.044755      0.421201     -0.723336
O      13.40977      5.78224     13.68702         0.083648     -0.015319     -0.960533
O       1.87500      5.75970      5.06730         0.252061      0.271094     -1.253625
O      13.47234      5.78467      5.03944         0.503509     -0.141440     -0.642148
O       2.02663      5.91019      9.30591        -0.159890     -0.515551     -0.771830
O      13.27727      5.71861      9.26149         0.620512      0.264965     -1.329897
O       1.84948      9.59905      0.64728        -0.004091      0.222647     -0.860356
O       1.83843      9.57406     13.57442        -0.076428      0.286635      0.490746
O      13.35062      9.71563      0.64472        -0.181403     -0.140576     -1.984441
O      13.42115      9.61959     13.76694         0.273876      0.040073     -0.812724
O       1.88800      9.57961      4.88971        -0.067560     -0.242074     -0.998536
O      13.41331      9.69588      5.06692        -0.132155     -0.420369     -1.062792
O       1.90919      9.59686      9.26442        -0.046190      0.101293     -2.895114
O      13.36942      9.56601      9.18285         0.315508     -0.271715     -0.966045
O       5.83740      2.01724      0.47182        -0.322390     -0.227535     -0.417684
O       5.83744      1.78263     13.67708        -0.144321     -0.029297      1.478162
O       6.01474     13.19744      0.65155        -0.933094      0.530161     -0.131255
O       5.68360     13.58365     13.78236        -0.002271     -0.265251     -1.444948
O       5.76650      1.81356      4.86114        -0.014949      0.287345      0.961762
O       5.83847     13.47393      4.97072        -0.216657     -0.468208     -0.782394
O       5.72381      1.90898      9.31403         0.098695      0.140013     -0.559786
O       5.54066     13.46383      9.34920         0.399645     -0.144338     -0.066483
O       5.64515      5.72026      0.55515         0.580744      0.060647     -0.740205
O       5.66757      5.83547     13.74369        -0.059948     -0.230893     -2.125623
O       5.72781      5.64870      4.92462        -0.135447      0.588846     -0.431494
O       5.76815      5.86220      9.35892         0.098183     -0.261757     -1.755127
O       5.61872      9.70792      0.56654         0.031687     -0.256478     -0.878435
O       5.67201      9.53860     13.77682         0.371347      0.319908     -1.410375
O       5.81300      9.48147      5.02044        -0.147982      0.356492     -2.509548
O       5.71845      9.69059      9.35157         0.422678     -0.656991     -0.066668
O       9.67176      1.94721      0.57995        -0.291026     -0.213625     -1.316016
O       9.46952      1.94436     13.66078         0.073855      0.124223     -0.490015
O       9.68621     13.46639      0.63707        -0.203977     -0.193116     -1.767394
O       9.69892     13.57146     13.77354        -0.142382     -0.596441     -1.449551
O       9.76055      2.17631      4.87216        -0.581933     -0.962862     -0.064426
O       9.70801     13.42806      4.94527        -0.842249     -0.226606      0.880565
O       9.35207      1.76299      9.38532         0.651097      0.402358     -0.477475
O       9.55511     13.53696      9.37182        -0.279419     -0.014933     -1.292757
O       9.66268      5.75305      0.63797        -0.488105      0.344613     -0.005933
O       9.79155      5.59279     13.64485        -0.661929      0.507149     -1.991703
O       9.68106      5.90179      5.02022        -0.360642     -0.583597     -1.688400
O       9.53798      5.70709      9.21808        -0.324313     -0.008586      1.298488
O       9.66342      9.37012      0.61904        -0.108694      0.450271     -1.368821
O       9.57300      9.69829     13.63363        -0.187452     -0.377044     -0.236767
O       9.51030      9.47955      5.18489         0.186787      0.433125     -2.003724
O       9.68398      9.55680      9.33998        -0.756801      0.064378     -0.295194
O       3.80852      1.90823      2.58427         0.736491      0.295736      0.079449
O       3.91400      1.80149     15.90451        -0.825287      0.156552      0.078973
O       3.82527     13.37318      2.78012         0.250083     -0.111734     -0.303010
O       3.87265     13.46318     15.98653        -0.720333      0.071976      0.227509
O       0.00722      1.78223      2.86286        -0.661404      0.701760     -0.313000
O       0.05246      1.92814     15.79587        -0.453423     -0.230855     -0.130788
O      15.33768     13.62687      2.68340        -0.402110     -0.789088      0.143566
O      15.33836     13.45353     15.79718        -0.252039     -0.138680      0.482612
O       3.96534      1.98477      7.13140        -1.329110     -0.304707      0.137135
O       3.82306     13.42013      6.98183        -0.234792     -0.482240      0.579831
O       0.05037      1.82564      6.96008         0.524459      0.362999      0.605687
O       0.03213     13.35632      6.99761         0.233385      0.340795      0.573372
O       3.85790      1.78081     11.50467         0.276454      0.497961      0.170582
O       3.83299     13.51333     11.43472        -0.172352      0.112483      0.764782
O       0.01760      1.91166     11.50452        -0.080693      0.199686     -0.009540
O       0.01599     13.36525     11.38655        -0.631714      0.054183      0.815397
O       3.86041      5.81487      2.55030        -0.965584     -0.089587      0.857922
O       3.83647      5.78736     15.92591        -0.644259     -0.266068     -0.242727
O       0.00384      5.80306      2.67609        -0.140723     -0.320674      0.287106
O       0.07961      5.86271     15.74706        -1.062617     -0.034042      0.359043
O       3.88300      5.74057      7.12832        -0.754954      0.175022     -0.133584
O      15.35810      5.77588      7.14995         0.659041     -0.134533      0.476407
O       3.82536      5.89576     11.35501         0.955175     -0.115832      0.749549
O       0.04455      5.60522     11.21295        -0.804773      0.979561      0.738405
O       3.76836      9.44001      2.68857         0.175738      0.980935      0.579915
O       3.78796      9.68869     15.80833        -0.507698     -0.219165      0.306987
O      15.24116      9.56187      2.61824         0.745645      0.065500      0.579462
O      15.35346      9.67485     15.86526        -0.226753     -0.611232      0.073527
O       3.84175      9.45478      7.03049        -0.639838      0.497981      0.038962
O      15.35181      9.62121      7.09919        -0.465270     -0.634988      0.155447
O       3.78858      9.42733     11.36669         0.859043      0.313722      0.530050
O      15.34430      9.74415     11.36383        -1.158822     -0.230148      0.149599
O       7.70794      1.91810      2.64894        -0.674846      0.003111      0.214501
O       7.71950      1.95866     15.91642        -0.493690     -0.113166     -0.009924
O       7.68892     13.42871      2.78617        -0.092779     -0.162519      0.217572
O       7.66308     13.41579     15.78745         0.207201     -0.185148      0.388049
O       7.71776      1.84771      7.12721        -0.663965      0.546665     -0.291867
O       7.59920     13.38326      7.09119         0.904166     -0.239956      0.363720
O       7.66302      1.91516     11.48654        -0.904681      0.357254      0.278025
O       7.72337     13.46091     11.48242        -2.196597     -0.693383      0.384196
O       7.64072      5.78131      2.85593         0.019401     -0.062382     -0.556746
O       7.59498      5.76418     15.77634         1.512476     -0.054044      0.114968
O       7.67262      5.72355      7.01682        -0.579332      0.327654      0.334038
O       7.72617      5.72814     11.43091        -1.371364      0.212262      0.593548
O       7.58005      9.68559      2.60839         0.733126     -0.273960      0.548872
O       7.65802      9.63886     15.92991         0.208453     -0.492988     -0.511024
O       7.68122      9.52072      7.25149        -0.533895      0.298512      0.055468
O       7.70283      9.61932     11.51904        -0.586405      0.094115      0.147093
O      11.46802      2.03928      2.74116         1.480660     -0.183276      0.159097
O      11.46845      2.03354     15.50439         0.887112     -0.434427      0.768208
O      11.45587     13.30352      2.81674         0.589410      0.421740      0.128420
O      11.52075     13.60411     15.80596         0.675278     -0.728855      0.404462
O      11.47314      1.86120      7.15681         0.414408     -0.137005     -0.117670
O      11.48123     13.38247      7.11974        -0.814018      0.191392      0.187295
O      11.48890      2.06445     11.47122         0.889314     -1.063762     -0.238501
O      11.49107     13.46338     11.40215         0.101069     -0.009912      0.615112
O      11.51879      5.77408      2.84969        -1.051757      0.117521     -0.007275
O      11.48571      5.57584     15.85413        -0.097670      1.448349     -0.512037
O      11.57325      5.65195      7.03918        -0.776590     -0.102806      0.699055
O      11.46227      5.79574     11.24840         0.383546     -0.149897      1.193196
O      11.43557      9.64337      2.79265         0.344368     -0.376575      0.077131
O      11.49685      9.61420     15.76182        -0.286255     -0.093372      0.493950
O      11.51737      9.79000      7.33171        -0.404603     -1.595371     -1.150793
O      11.47032      9.57931     11.46956         0.885916      0.352309     -0.098089
O       1.94061      3.88559      2.78990        -0.342012     -0.138707     -0.433993
O       1.92856      3.85886     15.62764         0.560918     -0.460029      0.824892
O       2.05795     15.32839      2.62225        -0.481440      0.150160      0.232656
O       1.92543     15.29994     15.82785         0.018143      0.582921      0.522702
O      13.45080      3.84784      2.75917         0.341967     -0.288400      0.245870
O      13.49799      3.85397     15.77232         0.149156     -0.455006     -0.029262
O      13.25843      0.01686      2.59102         0.240532      0.540373      0.820380
O      13.41421      0.10261     15.79989         0.503562     -0.751043     -0.346085
O       1.97473      3.79866      7.10448        -0.069011      0.719701      0.419079
O       2.02286     15.28948      7.04763        -0.151510      1.143031      0.218857
O      13.43814      3.77852      7.17537         0.560208     -0.485311     -0.028908
O      13.46683     15.23672      7.05001        -0.170614      1.384768      0.478130
O       1.96389      3.82321     11.49071         0.481131      0.229803     -0.021611
O       1.87969     15.32831     11.37580        -0.099220     -0.163926      0.808950
O      13.44163      3.88703     11.27204        -0.027062     -0.847996      0.756889
O      13.43186      0.01911     11.47937         0.115324     -0.316777      0.263937
O       1.95190      7.62382      2.61481        -0.485328      0.093755      0.504775
O       2.03710      7.70060     15.82721        -0.705728      1.016602     -0.045780
O      13.41754      7.62299      2.66660        -0.202707      2.301046      0.579785
O      13.36073      7.63732     15.80714         0.223966      0.891978      0.505964
O       1.86196      7.71366      7.13365         0.222286     -0.829409      0.021341
O      13.27169      7.65323      7.05820         0.719912      0.318976      0.491957
O       1.73551      7.80714     11.36174         0.216893     -2.117809      0.435128
O      13.43569      7.70579     11.38011         0.371407      0.156459      0.044866
O       1.85790     11.53761      2.86318         0.300244     -0.935333     -0.856802
O       1.89369     11.46686     15.88083        -0.103807      0.462452      0.258200
O      13.35635     11.54428      2.71195         0.611302     -0.566683      0.318903
O      13.41548     11.53600     15.75766        -0.149593      0.142969      1.010789
O       1.85950     11.43758      7.01298         0.794523      0.849786      0.110652
O      13.41413     11.50121      7.25305         0.309379      0.076331     -0.143770
O       2.08263     11.55668     11.44710        -0.422609     -0.395742     -0.142821
O      13.40010     11.49826     11.29512        -0.265421     -0.092731      0.596065
O       5.73772      3.82771      2.73293         0.118535      0.134331     -0.242628
O       5.71329      3.78557     15.73882         0.022734      0.022290      0.348368
O       5.78854     15.33585      2.58909        -0.303665      0.342395      0.202899
O       5.85543     15.33557     16.01945        -0.279801     -0.304848     -0.011635
O       5.79220      3.87915      7.12112         0.106796     -0.588638      0.088889
O       5.74336     15.33963      7.10956        -0.160199      0.001299      0.108518
O       5.80337      3.91165     11.56489        -0.998409     -0.517679     -0.749827
O       5.81523     15.34122     11.39614        -0.080922      0.177934      0.511108
O       5.81957      7.72510      2.70420        -0.450847     -1.045122      0.074483
O       5.71042      7.67744     15.73795        -0.092541      0.562639      1.109233
O       5.72448      7.61883      7.09204         0.529362      0.363245      0.237898
O       5.87610      7.66287     11.57686        -0.206555      0.094996     -0.268099
O       5.68967     11.49576      2.73681        -0.091964     -1.376482      0.908997
O       5.66654     11.55747     15.81906         0.482030     -0.502727      0.236705
O       5.62966     11.44183      7.20626         0.662551      0.321069     -0.504153
O       5.62927     11.45897     11.47928         0.737319      0.872202      0.572336
O       9.59907      3.85709      2.63771        -0.296002      0.343690      0.634275
O       9.56322      3.86265     15.84497        -0.906941     -0.073694     -0.625242
O       9.74876     15.34489      2.69646        -0.911878      0.046956      0.089323
O       9.44608     15.35620     15.73396         0.679850      0.649807      0.626105
O       9.60585      3.78936      7.05611        -0.370926      0.096287      0.474648
O       9.53991      0.00435      7.02159         0.071653     -0.422984      0.112491
O       9.60919      3.77811     11.36159        -0.479228      1.797444      0.533384
O       9.59888      0.04265     11.56159         0.122681     -0.883482      0.278204
O       9.55943      7.68811      2.79092        -0.097479      0.042160      0.261965
O       9.58135      7.67946     15.76668         0.092692     -0.783423     -0.083056
O       9.66827      7.60412      7.12409        -0.196842      0.407080      0.586921
O       9.60096      7.68840     11.49379        -0.405358     -0.486020      0.100106
O       9.55342     11.49938      2.78761        -0.163919     -0.578433     -0.062984
O       9.57401     11.51336     15.76806         0.480589      0.035991      0.312417
O       9.56432     11.49482      7.32727        -0.634745      0.653698     -0.712180
O       9.57590     11.52490     11.57287        -0.360390      0.223785     -0.393625
