  # total energy = -7882.52938498 
CRSYTAL
PRIMVEC
    15.3600000000000000    0.0000000000000000    0.0000000000000000
     0.0000000000000000   15.3600000000000000    0.0000000000000000
     0.0000000000000000    0.0000000000000000    17.440000000000000
PRESSURE
1.42608 1.54368 3.03561 0.141276 0.008539 -0.012692
PRIMCOORD
320 1
Pb       3.76453      3.83373      4.33331         0.472477      0.266010     -0.200877
Pb       3.84123      3.83104     17.36949         0.368879      0.293396      0.352124
Pb       3.81629      0.02229      4.27403        -0.205760     -0.014797      0.003469
Pb       3.70820      0.04474      0.00781         0.028353     -0.600380     -0.589515
Pb       0.00657      3.74907      4.36839        -0.590255      0.053263     -0.551174
Pb       0.04877      3.95844     17.37781        -0.802864     -0.425579      0.570873
Pb      15.33720     15.30059      4.30006         0.272707      0.132525     -0.229653
Pb      15.24252     15.28281     17.43323         0.790221      0.033625     -0.384267
Pb       3.77540      3.73299      8.76102        -0.068546      0.379235     -0.358001
Pb       3.90183     15.35057      8.62683        -0.543464     -0.034721      0.447938
Pb      15.31116      3.81248      8.69200        -0.289177     -0.417698     -0.767494
Pb      15.27674      0.04315      8.66280         0.290849     -0.211136      0.001837
Pb       3.65437      3.76990     13.04671         0.266731      0.630897     -0.067808
Pb       3.72829     15.27079     13.01912         0.580215     -0.326229      0.293952
Pb      15.35689      3.80619     13.04932        -0.376992     -0.426733     -0.167636
Pb       0.04208     15.35724     13.01788        -0.387683      0.219593      0.379459
Pb       3.83453      7.63532      4.29624        -0.000820      0.043913      0.014198
Pb       3.77043      7.60865     17.34925         0.172596      0.568378      0.472151
Pb       0.03323      7.75195      4.37432        -0.075034     -0.396110      0.042877
Pb      15.12652      7.69844     17.32507         1.365241      0.171655      0.551126
Pb       3.91683      7.65784      8.75246        -0.115032     -0.539868     -0.962045
Pb       0.07975      7.59747      8.67897        -0.277643      0.430234     -0.062383
Pb       3.76989      7.61299     12.96937         0.473752      0.257961      0.298687
Pb       0.04381      7.62760     13.07401        -0.335939      0.329553     -0.661380
Pb       3.76503     11.56460      4.21659         0.450457     -0.479147      0.068807
Pb       3.95910     11.53649     17.41838        -0.369324     -0.032804     -0.176348
Pb      15.29189     11.57525      4.34013         0.668522     -0.383109      0.356718
Pb      15.29482     11.57984     17.31347         0.415128     -0.218233     -0.074262
Pb       3.82020     11.54729      8.60974        -0.265730      0.005587      0.263825
Pb      15.24775     11.38610      8.64707         0.723855      0.357889      0.516697
Pb       3.83398     11.52722     13.15614         0.307908      0.159718     -0.380577
Pb       0.03277     11.55568     13.12678        -0.155256     -0.270893     -0.471102
Pb       7.72002      3.73600      4.41591        -0.212265      0.589738     -0.234970
Pb       7.64958      3.90982     17.35026         0.043371     -0.166206     -0.400352
Pb       7.73961      0.08168      4.29547        -0.473559     -0.152574     -0.165101
Pb       7.67802      0.05633     17.35649        -0.296216     -0.096347     -0.002057
Pb       7.71551      3.70900      8.75987        -0.251266     -0.003837      0.286432
Pb       7.62935     15.17223      8.62747         0.104052      0.378292      0.459106
Pb       7.74728      3.83412     13.19086         0.098479      0.493968     -0.740784
Pb       7.57176      0.08349     13.08970         0.478557     -1.153684     -0.047927
Pb       7.66132      7.57996      4.30095        -0.475443      0.322405      0.010186
Pb       7.69326      7.71544     17.39454        -0.000708     -0.336719     -0.376100
Pb       7.59678      7.69878      8.65071        -0.047097      0.084325      0.188795
Pb       7.50788      7.65561     12.98961         0.799276     -0.023154      0.148886
Pb       7.67022     11.54860      4.32908        -0.446583     -0.300434     -0.310844
Pb       7.77018     11.49788      0.07394        -0.323169      0.222466     -0.839906
Pb       7.46225     11.49332      8.58726         0.657556      0.141934      0.008820
Pb       7.66336     11.40581     13.08662        -0.043601      0.524731     -0.227984
Pb      11.43557      3.80299      4.33085         0.274592      0.595460     -0.031023
Pb      11.69806      3.85112     17.37848        -0.734810      0.002100      0.328498
Pb      11.40768     15.28660      4.27793         0.482574      0.634857      0.324854
Pb      11.51256     15.31370     17.41174        -0.835608     -0.068017     -0.221671
Pb      11.38530      3.86121      8.70502         0.712334     -0.582831      0.257358
Pb      11.53449     15.26470      8.65759        -0.252039      0.203848      0.393972
Pb      11.58443      3.77114     13.10881        -0.319264      0.492680     -0.476494
Pb      11.61759     15.35907     12.90298        -0.670847     -0.299686      0.693756
Pb      11.41784      7.75910      4.28840         0.971805     -0.575762     -0.150523
Pb      11.60000      7.60603     17.38491        -0.623815      0.216384      0.010004
Pb      11.42028      7.63056      8.71329         0.661762      0.491845      0.361412
Pb      11.45999      7.70912     12.95359         0.113596     -0.396405      0.077610
Pb      11.55765     11.45882      4.36921         0.263199     -0.339422      0.106588
Pb      11.48015     11.45596     17.40727         0.298625      0.003827     -0.482757
Pb      11.60159     11.52235      8.63449        -0.390445     -0.524520      0.173466
Pb      11.50681     11.45068     12.98400        -0.028356     -0.099417      0.054146
Ti       1.88472      1.93103      2.24105        -0.951097     -0.252812      1.004156
Ti       1.85482      1.99847     15.47482        -0.715468     -1.768083      0.023985
Ti       1.89044     13.39041      2.26446        -0.032322      0.273933     -1.659453
Ti       1.97324     13.46452     15.41288        -0.496078     -0.281960      0.629688
Ti      13.33919      1.85980      2.23939         0.915214      0.805675      2.650915
Ti      13.37119      1.80627     15.47615         0.681217      1.591228     -0.367318
Ti      13.30420     13.41455      2.32972         2.007125     -0.507872      0.776738
Ti      13.42031     13.40822     15.35355        -0.117521     -0.740504      1.068795
Ti       1.84477      1.85048      6.62202        -0.351996     -0.031148      0.344685
Ti       1.88176     13.38179      6.70719        -0.784718      0.641981      0.117385
Ti      13.34410      1.82142      6.62093         0.690552      1.435982      2.175573
Ti      13.41753     13.37035      6.55843         0.593191      0.583401      1.025896
Ti       1.89785      1.90136     11.03664        -1.496712     -0.440125     -0.675877
Ti       1.84150     13.45507     11.03984         1.371333     -0.886477      0.371214
Ti      13.37823      1.92512     10.99413         0.625518     -0.334884     -0.737869
Ti      13.46355     13.42102     11.08454        -0.146703     -1.275349      0.670658
Ti       1.86989      5.73207      2.34894         0.060623      0.728823      0.555017
Ti       1.88173      5.76782     15.41994        -0.178683      0.810790      0.086296
Ti      13.43537      5.71713      2.45536        -0.330024      0.161644      1.761648
Ti      13.40235      5.73962     15.27758        -0.142567     -1.249459      0.806656
Ti       1.88503      5.72887      6.64223         0.925717     -0.280062      0.919532
Ti      13.38925      5.80211      6.67657         0.385999     -1.136855      0.677762
Ti       1.86959      5.75087     11.04211         1.127612     -0.314274     -0.208796
Ti      13.44627      5.70426     11.04591        -0.778332      0.444867      3.065094
Ti       2.00718      9.55487      2.30742        -0.581683     -0.426327     -0.689428
Ti       1.98700      9.60544     15.40387        -0.288931      0.363386      1.903866
Ti      13.63034      9.56506      2.33834        -1.904417     -0.090638      1.273238
Ti      13.47713      9.49440     15.27985        -0.366252      1.854688      1.347484
Ti       2.02726      9.56212      6.70542        -0.947469     -0.038701     -0.615336
Ti      13.50104      9.53905      6.70091        -0.580684     -0.403145     -0.421333
Ti       1.95704      9.63894     11.12007        -0.869551      0.885259     -0.657769
Ti      13.47131      9.59809     11.04388        -0.074438      0.036659      0.037746
Ti       5.74284      1.92171      2.30903         0.216666      0.694730      0.063572
Ti       5.66757      1.88860     15.31243         1.327178     -0.591203      1.565942
Ti       5.69155     13.46012      2.27281         0.522374     -0.366245      1.316292
Ti       5.77019     13.40055     15.38688         0.418861      0.029729     -1.070055
Ti       5.70064      1.94382      6.69546         0.130138     -0.319746      0.562579
Ti       5.70034     13.47847      6.57830         0.561545     -0.441295     -0.231977
Ti       5.68594      1.94586     11.25491         1.066518     -0.703125     -1.087261
Ti       5.76908     13.39051     11.11855         0.477356      0.270652      1.371537
Ti       5.73982      5.73678      2.32674        -0.475786     -0.085565      0.103064
Ti       5.70534      5.70990     15.29600         1.634900      0.253017      0.607324
Ti       5.76257      5.65951      6.76659        -0.977242      1.303302      0.326920
Ti       5.77069      5.67129     11.05980         0.159407      0.507282      0.694570
Ti       5.80265      9.60450      2.25191         0.057124     -0.084080      1.176679
Ti       5.80729      9.53375     15.44452        -0.205240      1.008209      0.106913
Ti       5.79833      9.61909      6.52234        -0.594249     -0.344732     -0.322011
Ti       5.71111      9.54905     10.96458         1.016987      0.421987      2.120581
Ti       9.58448      1.96338      2.25893        -0.093805      0.069773     -0.889490
Ti       9.54045      1.95777     15.32695         0.320677      0.011643      3.004712
Ti       9.53856     13.42519      2.30403         0.128076      0.029095     -0.413208
Ti       9.58267     13.47101     15.41226        -0.205556     -0.835531     -0.372621
Ti       9.55498      1.83785      6.77222        -0.047979      0.470149      1.360788
Ti       9.59801     13.35310      6.59804        -0.295714      0.228922      2.771000
Ti       9.53655      1.89514     11.12811         0.396982     -0.083623      0.238373
Ti       9.59866     13.35213     11.05394        -0.110752      0.691100      1.624497
Ti       9.49181      5.74015      2.28882         1.515751     -0.135289      1.613117
Ti       9.66662      5.75774     15.33818        -1.423203      0.833950     -0.816375
Ti       9.55034      5.82340      6.79748         0.468550     -1.940936     -1.607489
Ti       9.57623      5.75385     11.02221         0.583813     -0.007882      2.778231
Ti       9.65187      9.64213      2.39449        -0.206140     -0.156970      0.211574
Ti       9.62657      9.58781     15.39931         0.462084      0.234748      0.494180
Ti       9.59186      9.56609      6.61728         1.084174      0.944821      2.671233
Ti       9.55151      9.55807     10.90341         0.539831     -0.286484      0.644270
O       1.82298      1.87748      0.49379         0.684543      0.119489     -0.338530
O       1.76499      2.03250     13.70548         0.437064      0.036479     -0.049287
O       1.89293     13.47737      0.41000         0.147881      0.034030      1.384875
O       2.03616     13.40501     13.66842        -0.304529      0.422301     -0.954648
O      13.35616      1.99982      0.55784         0.049512     -0.394132     -2.263418
O      13.40815      1.87604     13.72751        -0.033048     -0.026955     -0.311406
O      13.34913     13.31275      0.58847         0.299927      0.211487     -0.448402
O      13.54424     13.43315     13.63756        -0.365272     -0.095236     -0.801190
O       1.75511      1.81388      4.84000         0.315772      0.364766      0.051422
O       1.71480     13.39144      4.96301         0.952135      0.062610     -0.491654
O      13.45901      1.83086      4.92416        -0.112776     -0.121231     -1.343808
O      13.40204     13.43585      4.79345         0.143025      0.199298      0.385847
O       1.75828      1.85750      9.27956         0.676662      0.147011      0.227626
O       1.96804     13.32570      9.32720        -0.025275      0.339380     -1.053956
O      13.41551      1.90637      9.21636        -0.038453     -0.066283      0.474968
O      13.36200     13.27407      9.37914         0.090484      0.239154     -1.551712
O       1.85672      5.68680      0.61629         0.044723      0.304931     -1.637086
O       1.87604      5.74873     13.66510         0.076099     -0.352007     -0.249783
O      13.28566      5.72575      0.75332         0.483604      0.394906     -2.174174
O      13.35529      5.71896     13.56508         0.505910      0.019226     -0.550460
O       2.12968      5.71067      4.90239        -0.790785      0.032730     -0.023433
O      13.49664      5.84807      4.96352        -0.566206      0.044273     -1.095515
O       1.96271      5.77223      9.29528        -0.282788     -0.024489     -0.144932
O      13.37838      5.70337      9.38717         0.214033     -0.053293     -2.673686
O       1.93960      9.53295      0.54501        -0.045859     -0.180985      0.135935
O       2.06049      9.55772     13.70816         0.007610     -0.199031     -2.260823
O      13.52525      9.62385      0.60834         0.170432     -0.227869     -1.318645
O      13.45550      9.61214     13.57961         0.136891     -0.278120     -1.118521
O       1.95961      9.46937      4.95135         0.268919      0.399879     -0.193595
O      13.52640      9.43082      4.94924        -0.041912      0.181987     -0.179574
O       1.79369      9.75869      9.37525         0.838254     -0.533467     -0.208091
O      13.44109      9.65984      9.28252         0.534244      0.093918     -0.633333
O       5.86264      1.95053      0.54750        -0.659804      0.061137      0.463805
O       5.89649      1.70613     13.60557        -0.961821      1.345743     -0.926515
O       5.62851     13.44498      0.56098         0.014773      0.510145     -0.814919
O       5.84627     13.33216     13.54694        -0.235283      0.057890      1.483680
O       5.74023      1.99541      4.98232         0.181189     -0.314938     -1.009803
O       5.71407     13.42506      4.82764         0.027856      0.081705     -0.031011
O       5.55603      1.90863      9.51176         0.266277     -0.056103     -1.142870
O       5.79354     13.41912      9.35183         0.062733     -0.188797     -0.502735
O       5.81053      5.76375      0.57846        -0.195186     -0.249717     -0.417719
O       5.86655      5.66733     13.55697        -0.533448      0.383882     -0.077843
O       5.69376      5.72015      5.04820         0.277526     -0.118889     -1.094415
O       5.61719      5.65174      9.32943         0.177104      0.390521     -1.224104
O       5.86774      9.48369      0.50655        -0.125938      0.163449     -0.588476
O       5.74143      9.61401     13.68670         0.187449     -0.103538     -0.037041
O       5.83214      9.74180      4.76147        -0.300086     -0.276383      0.564136
O       5.83636      9.55459      9.26177        -0.324037      0.140354     -2.121931
O       9.63763      1.91499      0.50853        -0.438500      0.214339      0.399940
O       9.52172      1.95615     13.63355         0.319107     -0.212280     -1.781649
O       9.60345     13.44706      0.53708         0.031255     -0.120778      0.985438
O       9.62989     13.31997     13.65104         0.032432      0.237802      0.585102
O       9.51331      1.99799      5.06471         0.030690     -0.260412     -1.542386
O       9.77476     13.53867      4.93641        -0.385043     -0.066872     -2.694292
O       9.64045      1.85187      9.41082        -0.541984      0.231654     -1.461483
O       9.53090     13.38858      9.34318        -0.007428     -0.096806     -1.466342
O       9.70046      5.72291      0.59144        -0.444794      0.187020     -1.023309
O       9.56544      5.84876     13.56847         0.232472     -0.172675      0.563076
O       9.60746      5.69064      4.96639        -0.279884      0.367013      1.374908
O       9.66895      5.76755      9.32934        -0.102379     -0.002716     -2.632244
O       9.61715      9.63738      0.66446         0.070326     -0.038907     -0.737517
O       9.67904      9.52624     13.68803        -0.331972      0.401409     -1.300101
O       9.74673      9.60314      4.93877        -0.558795     -0.228308     -2.536753
O       9.60961      9.50065      9.16176        -0.443124      0.290023     -0.539274
O       3.83383      1.96072      2.75323        -0.345401     -0.451522     -0.481216
O       3.82533      2.01339     15.80770        -0.469741     -0.368492     -0.102962
O       3.83148     13.48673      2.75603        -0.467760     -0.050517     -0.022291
O       3.84809     13.48200     15.76111         0.349119     -0.148942      0.350602
O      15.28690      1.98632      2.59536         0.834712     -0.513202      0.338020
O       0.00796      1.87938     15.87818        -0.506348      0.268121      0.135111
O       0.09505     13.41010      2.76046        -1.003816     -0.100974     -0.362895
O      15.31566     13.54371     15.79412        -0.063380     -0.594017      0.180363
O       3.74246      1.81590      7.06352         0.671759      0.485308      0.039925
O       3.87355     13.48275      7.09211        -1.044271     -0.367566     -0.059565
O      15.29528      1.84367      7.12851         0.027686      0.293157     -0.297488
O      15.34001     13.46070      7.09361        -0.833560     -0.369456     -0.193787
O       3.77962      2.04347     11.49759        -0.358972     -0.472700      0.412801
O       3.92841     13.48991     11.54074        -0.896965     -0.174515     -0.286884
O      15.31313      1.77147     11.38988         0.016668      0.343323      0.483470
O       0.03120     13.43040     11.47630        -0.440511      0.166758      0.187527
O       3.79820      5.79824      2.71603         0.964468     -0.203460      0.051481
O       3.85647      5.76808     15.80828        -0.686704     -0.510036     -0.211042
O       0.01171      5.73832      2.85961        -0.294625     -0.149527     -0.178350
O      15.27508      5.83401     15.80147         0.798302     -0.436598     -0.147641
O       3.79293      5.73373      7.12785         0.105024      0.188363      0.368769
O      15.32017      5.76195      7.09414         0.326968      0.122084      0.125228
O       3.84272      5.63087     11.48787        -0.801125      0.018435      0.254303
O       0.08867      5.68641     11.50151        -1.565614      0.351545      0.032152
O       3.88255      9.56977      2.74613        -0.054093     -0.267728     -0.216097
O       3.90047      9.69415     15.94083        -0.435820     -0.684794     -0.437519
O       0.04049      9.58056      2.85614         1.235974      0.166912     -0.375820
O       0.02848      9.56253     15.69746        -0.422950     -0.340710      0.302102
O       3.89526      9.60615      7.04469        -0.274734     -0.287276      0.317146
O       0.06843      9.59729      7.09618        -0.691124     -0.337642      0.178768
O       3.92515      9.54036     11.47937        -1.997903      0.132463     -0.059185
O       0.06991      9.70458     11.45561         0.027773     -0.750033      0.671284
O       7.66227      2.03112      2.75470         0.036622     -0.700106      0.186711
O       7.66455      1.93768     15.85002         0.180087      0.239781     -0.449538
O       7.68229     13.38658      2.67528         0.098536      0.184702      0.176548
O       7.58784     13.34555     15.93965         1.251440      0.936220     -0.274776
O       7.63502      1.89302      7.17276        -0.560378      0.066377      0.073543
O       7.60204     13.37940      7.01266         0.221511     -0.136996      0.058382
O       7.63718      1.91419     11.53612         0.785430     -0.328137     -0.062663
O       7.76321     13.54003     11.59779        -0.449106     -0.644871     -0.787662
O       7.63926      5.62804      2.73870         0.207610      0.300054      0.180947
O       7.68869      5.73315     15.75898        -0.336743      0.277030      0.233287
O       7.69020      5.72507      7.21286        -0.505023     -0.061522     -0.077552
O       7.71779      5.88294     11.39274        -0.912646      0.156638     -0.035724
O       7.64945      9.74506      2.80573         0.789879      0.233973     -0.218626
O       7.72697      9.61942     15.84223        -0.311929     -0.189836      0.087174
O       7.66633      9.61746      6.91657         0.091081     -0.046320      0.405325
O       7.66016      9.41217     11.32026         0.288282      0.332939      0.265283
O      11.44555      1.95867      2.68725         0.629577     -0.532619      0.302491
O      11.48352      1.94310     15.93128         0.026767     -0.423413     -0.823517
O      11.54583     13.53653      2.73314        -1.503639     -0.638414     -0.108850
O      11.48623     13.42961     15.87090         0.373671      0.175683     -0.300077
O      11.45454      1.83592      7.12566        -0.031137     -0.114997     -0.270311
O      11.51702     13.40973      7.12444         0.068870      0.132793     -0.422250
O      11.51888      2.04692     11.46096         0.022814     -0.374110      0.395245
O      11.61907     13.19956     11.49105        -1.403593      0.876644     -0.022120
O      11.47343      5.77859      2.79604        -0.481258      0.352092      0.271261
O      11.51587      5.70329     15.83417         0.727465      0.643578     -0.116258
O      11.52096      5.61311      7.23921        -0.889323      1.266890     -0.716589
O      11.51468      5.69520     11.56661         0.731504     -0.302456     -0.492145
O      11.63077      9.73097      2.75347        -1.206942     -1.158390     -0.005592
O      11.57962      9.61527     15.74325        -0.044060     -0.035877      0.508087
O      11.55899      9.61067      6.93710        -0.774853     -0.165026      0.616947
O      11.57029      9.66458     11.14464        -0.552910     -0.080669      1.218150
O       1.89816      3.85573      2.63838         0.205694     -1.383221      0.536379
O       1.88628      3.88592     15.95415         0.138530      0.006995     -0.622637
O       1.97911     15.29828      2.63391        -0.237612      1.108519      0.087582
O       1.86219     15.33780     15.77540         0.621777      1.295325      0.315605
O      13.40575      3.80857      2.72659        -0.160227     -0.210807      0.528890
O      13.48174      3.85282     15.74022        -0.194689      0.019686      0.318916
O      13.46450     15.30370      2.71092        -0.142895      0.463294     -0.455105
O      13.41295     15.34049     15.76169        -0.285383     -0.451645      0.651757
O       1.86421      3.79399      7.10583        -0.105384      0.043039     -0.299453
O       1.84835     15.33820      7.05242         0.234840     -0.174607      0.199448
O      13.40126      3.84586      6.96827         0.228533     -0.693704      0.290487
O      13.42505     15.28262      7.15642        -0.362952     -0.093246     -0.592715
O       1.77335      3.76432     11.40371         0.597303      0.536405      0.415905
O       1.86047     15.33944     11.51845         0.888421      0.481150     -0.099699
O      13.49403      3.74929     11.48651         0.253018      0.803140      0.070225
O      13.35881     15.30995     11.40909         0.111044      0.590128     -0.055985
O       1.92914      7.64287      2.72915         0.002871      0.419336      0.182388
O       1.89930      7.64007     15.76845         0.381503     -0.128364      0.252174
O      13.48835      7.69930      2.78843        -0.177070     -0.223349     -0.239270
O      13.40627      7.62353     15.73665        -0.231045      0.320420      0.173648
O       1.87905      7.66687      7.11634         0.375688     -0.266174      0.193056
O      13.35016      7.70173      7.23159         0.517682     -0.776606     -0.181733
O       1.86842      7.67199     11.44138         0.466493     -0.073206      0.189455
O      13.49975      7.61248     11.45631         0.276423      0.630187     -0.025227
O       2.00135     11.45484      2.52127        -0.061403      0.947076      0.776404
O       1.89204     11.51907     15.64838        -0.072663      0.015355      0.609023
O      13.53275     11.46137      2.93141        -0.625503      1.051558     -1.038127
O      13.48759     11.49440     15.81666        -0.164007      0.033335     -0.366418
O       1.87192     11.50128      7.11569         0.729910      0.014724     -0.107025
O      13.41677     11.48282      6.91623         0.173477      0.708837      0.354567
O       1.98077     11.59770     11.52281         0.293692     -0.902881      0.339723
O      13.54043     11.48463     11.52321         0.176839     -0.106790      0.230720
O       5.71460      3.85465      2.81358        -0.186885     -0.351777     -0.260425
O       5.77979      3.81701     15.69067        -0.263472      0.227869      0.264263
O       5.78768      0.01079      2.80536        -0.007300      0.537467     -0.296983
O       5.79315      0.01510     15.69225        -0.249144      0.008251      0.515823
O       5.65502      3.81040      7.11535         0.272905     -0.694724      0.457672
O       5.70378     15.35030      7.08803         0.371996      0.220375     -0.070154
O       5.91348      3.85636     11.45539        -0.437509     -0.369314      0.645970
O       5.77169     15.35644     11.58035        -0.312852     -0.065623     -0.300375
O       5.88529      7.69932      2.70263        -0.211936     -0.730748      0.204856
O       5.71535      7.68182     15.73083         0.257744     -0.884260      0.136588
O       5.77760      7.68249      7.05555        -0.112871      0.042588      0.284114
O       5.67427      7.65704     11.44668        -0.055689     -0.587793     -0.036457
O       5.64781     11.52791      2.53712         0.135001      0.463443      0.391357
O       5.84421     11.55840     15.87418        -0.737615     -0.841972      0.038742
O       5.64498     11.50962      6.95645         0.600340      0.186350      0.452969
O       5.74722     11.44298     11.48806         0.575134      0.435595     -0.390214
O       9.62767      3.81944      2.78348        -0.350389      0.366600     -0.117901
O       9.63199      3.90301     15.61959        -0.309716     -1.228094      0.349031
O       9.60021      0.03757      2.71589        -0.384409     -0.479735      0.221249
O       9.52221     15.34088     15.94491         0.480982      0.460057     -0.892068
O       9.50052      3.82725      7.29152         0.395830     -0.428067     -0.503148
O       9.43461     15.25407      7.07391         0.699275      0.665677      0.075819
O       9.49124      3.89569     11.45028         0.152204     -0.975500      0.253600
O       9.84064     15.35460     11.40376        -0.548944     -0.403729      0.154192
O       9.30296      7.75108      2.68452         1.397500     -0.846537      0.057038
O       9.62993      7.71591     15.73575         0.215477     -0.652409      0.882115
O       9.57772      7.64729      7.15210         0.029620      0.523450     -0.402543
O       9.80764      7.66819     11.41961        -0.845822      0.803605     -0.483150
O       9.71270     11.53494      2.80534        -0.468140      0.876849     -0.065825
O       9.57704     11.56269     15.89627         0.142246     -0.569938      0.008543
O       9.60339     11.49976      6.93808        -0.247513     -0.236569      0.242421
O       9.52695     11.43282     11.42608         0.015486     -0.101556      0.008777
