  # total energy = -7879.78056793 
CRSYTAL
PRIMVEC
    15.2000000000000000    0.0000000000000000    0.0000000000000000
     0.0000000000000000   15.2000000000000000    0.0000000000000000
     0.0000000000000000    0.0000000000000000    17.000000000000000
PRESSURE
7.9529 8.54179 3.45341 -0.176667 -0.023491 -0.094956
PRIMCOORD
320 1
Pb       3.71721      3.87081      4.22441        -0.067157     -0.751003      0.546115
Pb       3.78285      3.84783      0.08470         0.156835     -0.181749     -0.204172
Pb       3.67363      0.06396      4.33377         0.411258     -0.448977      0.554189
Pb       3.88553     15.19874      0.02100        -0.101384      0.034870      0.167192
Pb      15.09064      3.90979      4.17294         0.133627     -0.627204      0.489230
Pb      15.19258      3.67812     16.97852         0.167168      0.494709      0.344635
Pb       0.01123      0.12174      4.22969        -0.607175      0.013847      1.333577
Pb       0.03845     15.19362     16.87026        -0.053112     -0.097765      0.588122
Pb       3.81662      3.69020      8.47101         0.021071      0.619590      0.383614
Pb       3.76006     15.10806      8.52576        -0.233621     -0.068350     -0.275230
Pb      15.12288      3.80522      8.47292         0.387983     -0.493162      0.566288
Pb      15.17740     15.11546      8.66977         0.107188      0.279212     -0.413116
Pb       3.78182      3.84788     12.75816         0.650751     -0.097136     -0.091632
Pb       3.82237     15.11718     12.67760         0.154521     -0.102569     -0.179015
Pb       0.05717      3.57329     12.76028        -0.700262      0.812801     -0.053503
Pb       0.04620     15.16211     12.71869        -0.437417     -0.750780      0.037057
Pb       3.62742      7.70536      4.26936         0.430346      0.062773     -0.023394
Pb       3.93842      7.59998      0.06306        -0.704736     -0.546580     -0.151803
Pb      15.17670      7.69130      4.17533        -0.872503     -0.324726      0.249253
Pb       0.17388      7.66031     16.93819        -0.871261     -0.293666      0.354691
Pb       3.70501      7.57098      8.44263         0.856901      0.153667      0.533661
Pb      15.11054      7.51754      8.50553         0.196320      0.730024      0.748194
Pb       3.85747      7.57385     12.64964        -0.189338     -0.378139      0.220468
Pb      15.14462      7.46711     12.66354         0.081532      0.530880      0.052665
Pb       3.61664     11.46595      4.26565         0.750143      0.139386      0.144161
Pb       3.88071     11.37128      0.13486        -0.116163      0.529193      0.058188
Pb      15.12097     11.47277      4.19080        -0.212454     -0.005922      0.778802
Pb       0.09509     11.42023     16.96860        -0.219004     -0.052766      0.120498
Pb       3.77747     11.34970      8.46397        -0.032706     -0.020223     -0.171338
Pb      15.01693     11.36776      8.51013         0.478934      0.033217      0.242975
Pb       3.79517     11.29680     12.73994        -0.285197      0.497292     -0.305822
Pb       0.01941     11.28798     12.67295        -0.030117      0.203775     -0.175530
Pb       7.58348      3.75080      4.10558         0.084489      0.240606      0.985284
Pb       7.56081      3.77011     16.95298        -0.079061     -0.078822      0.275768
Pb       7.60577      0.07999      4.20395        -0.023660     -0.726589      0.827426
Pb       7.59000     15.18708      0.02377        -0.168665     -0.032723     -0.413727
Pb       7.65446      3.90515      8.32268        -0.783017     -0.579184      0.985141
Pb       7.56827     15.11328      8.32439         0.083353      0.192593      0.445129
Pb       7.49181      3.77573     12.71335         0.346087     -0.296854      0.029961
Pb       7.63620      0.07934     12.69213        -0.035921     -0.122696      0.652169
Pb       7.59372      7.68652      4.40183         0.406036     -0.186527     -0.512209
Pb       7.42589      7.62140     16.94402         0.865872     -0.491686      0.698910
Pb       7.62019      7.56910      8.43931        -0.350885     -0.112084      0.678369
Pb       7.62462      7.49275     12.75585        -0.278331     -0.140141     -0.496255
Pb       7.60105     11.40072      4.18221        -0.063221      0.291109     -0.045187
Pb       7.69809     11.36843      0.00019        -0.271530      0.129244      0.216192
Pb       7.51115     11.42090      8.35585         0.285825      0.049700      0.580308
Pb       7.47267     11.21663     12.70000         0.863449      0.459298      0.315661
Pb      11.44849      3.62566      4.16154         0.616008      0.504778      0.714063
Pb      11.44689      3.75945      0.00359        -0.160516      0.351150      0.309318
Pb      11.40253      0.02404      4.18435        -0.093203      0.030703      0.840347
Pb      11.43142     15.11624     16.89180        -0.427396      0.126416      0.252049
Pb      11.31429      3.79705      8.46061         0.409836     -0.480629     -0.119000
Pb      11.27440     15.15193      8.45272         0.149414      0.301899      0.124027
Pb      11.41894      3.80838     12.79292        -0.126711     -0.373682      0.037795
Pb      11.38497     15.10975     12.83732        -0.318872      0.168003     -0.221244
Pb      11.39972      7.73711      4.17865         0.406651     -0.206043      0.405746
Pb      11.28490      7.51289     16.96984         0.856311      0.437376      0.307690
Pb      11.30393      7.52978      8.37758        -0.035552      0.700961      0.282848
Pb      11.28083      7.40259     12.70127         0.087083      0.967847      0.231393
Pb      11.43658     11.45236      4.14539        -0.347290     -0.433875      0.724670
Pb      11.33206     11.41465      0.06236         0.095595     -0.483698     -0.664044
Pb      11.31293     11.44656      8.51736         0.005864     -0.404361     -0.356050
Pb      11.44546     11.38229     12.90839        -0.446000     -0.112766     -0.868748
Ti       1.92177      1.85003      2.24024        -0.870711      0.727419     -0.482337
Ti       1.95486      1.85026     14.91539         0.218374      0.246219      0.875463
Ti       1.74249     13.36076      2.36618         1.214507     -0.612814     -0.172762
Ti       1.97643     13.30507     15.02174        -0.253671     -0.656696     -0.302038
Ti      13.30427      1.79965      2.11878         1.251431      1.274403      0.135457
Ti      13.28289      1.87858     14.98852         0.179807     -0.236554      0.148001
Ti      13.18747     13.32219      2.22371         0.743631      0.544359     -0.009086
Ti      13.25871     13.23509     15.05386         0.332930      0.101593     -0.930149
Ti       1.89629      1.90317      6.63574        -0.131562     -0.999173     -0.221876
Ti       1.76809     13.27093      6.55579         0.867404      0.753255     -0.570224
Ti      13.39897      1.88645      6.55779        -1.673820     -0.234596     -1.104199
Ti      13.23903     13.36345      6.59016        -0.105548     -0.903120     -1.444743
Ti       1.93223      1.83944     10.74542        -0.095018     -0.043008     -1.453525
Ti       1.85928     13.19758     10.71307        -0.176622      0.156734      0.001869
Ti      13.27268      1.79827     10.79996        -0.015115      0.704096     -0.414564
Ti      13.16906     13.22425     10.76386         0.349380      0.453795      0.476461
Ti       1.90928      5.73309      2.28152        -1.179849     -0.958338     -0.822856
Ti       1.89482      5.65405     15.00476         0.831398      0.732505      0.080419
Ti      13.32526      5.75864      2.19894        -0.064698     -0.303963      0.469711
Ti      13.35888      5.68619     15.01375        -0.178833      0.130569      1.015600
Ti       1.90381      5.72378      6.56687        -0.133334     -1.197785     -0.994588
Ti      13.31227      5.70601      6.59737        -0.309314     -0.281589     -1.810249
Ti       1.86879      5.63213     10.77921         0.238058      0.540671     -0.010076
Ti      13.28263      5.62802     10.73242         0.496439     -0.125653      1.307467
Ti       1.88896      9.53087      2.20478        -0.101595      0.137062     -0.064551
Ti       2.01782      9.54735     14.96887        -1.093670     -0.324000     -0.378376
Ti      13.32698      9.55733      2.10203        -0.936299     -1.118433      0.222011
Ti      13.38542      9.52260     14.94359        -0.786978     -1.185582      1.509563
Ti       1.86602      9.49679      6.49107         0.013982      0.867615      0.787643
Ti      13.29652      9.53101      6.57601        -1.722338      0.063428     -0.206234
Ti       1.91273      9.49445     10.63930        -0.995744     -0.487545     -0.241263
Ti      13.20808      9.47109     10.64117         0.372867     -0.035450     -0.638189
Ti       5.69963      1.87039      2.37785        -0.446794     -0.589202     -1.329636
Ti       5.69494      1.84074     15.00095         0.503913      0.777189     -0.663807
Ti       5.63830     13.28933      2.33435        -0.408158      0.067993      0.868327
Ti       5.71297     13.23233     14.96553         0.238273      0.892946      0.302951
Ti       5.70123      1.87494      6.60190        -0.070352      0.246706     -1.177551
Ti       5.57916     13.30479      6.45958         0.177277     -0.213850     -0.356455
Ti       5.68614      1.79481     10.66603         1.405870      0.784355      0.014120
Ti       5.69096     13.22316     10.68607        -1.055559      0.343917     -0.278596
Ti       5.74003      5.76021      2.35971        -0.099848     -1.083499      0.170652
Ti       5.64854      5.62031     15.07393        -0.395196     -0.222130     -1.305510
Ti       5.65300      5.71072      6.38525        -0.031950     -0.887538      0.847488
Ti       5.69167      5.63380     10.64325         0.259462      0.174304     -0.349014
Ti       5.71230      9.48027      2.29827         0.128760      0.761430      0.670301
Ti       5.66056      9.52145     15.04151         0.830037     -0.620288     -0.338063
Ti       5.74129      9.47763      6.49072        -1.165502      0.250110     -0.501842
Ti       5.68090      9.46135     10.72554         0.091437     -0.998555     -1.659389
Ti       9.52101      1.92738      2.15517         0.315725     -0.383102      0.132561
Ti       9.54330      1.91073     15.03774        -0.733732     -0.526861     -0.675420
Ti       9.43965     13.34002      2.20259        -0.038296     -1.054790      0.058355
Ti       9.39880     13.25985     14.95503         0.353109      0.298859     -0.066626
Ti       9.52461      1.89591      6.50000         0.784196     -0.736882     -1.384402
Ti       9.46241     13.28236      6.38231        -0.348969      0.318929      0.277170
Ti       9.56271      1.92193     10.73398        -0.975496     -0.304972     -0.573270
Ti       9.33813     13.28604     10.75112         1.464001     -0.268072      1.267310
Ti       9.58740      5.72241      2.33153        -0.291459      0.315038     -1.757745
Ti       9.50114      5.65323     15.06543        -0.107364     -0.872054     -0.969257
Ti       9.45707      5.67327      6.44941         0.494464      0.773658      0.619676
Ti       9.47993      5.64933     10.70223        -0.937194      0.202627     -1.052709
Ti       9.49497      9.50680      2.13066         0.272246     -0.259563      0.344491
Ti       9.47454      9.40974     14.97847         1.323159      0.328955     -0.258957
Ti       9.47778      9.56464      6.48540         0.963200     -0.588219      0.377101
Ti       9.48173      9.48532     10.73089        -0.145899      0.199788      0.480093
O       1.92746      1.68267      0.46089         0.066882      0.515367      0.265459
O       1.88335      1.72794     13.12812         0.461337      0.319513      0.127967
O       1.71158     13.34990      0.58836         0.464716      0.031411      0.036043
O       1.89154     13.15457     13.24230         0.251753      0.444664      0.478209
O      13.31048      1.82644      0.34183         0.086570     -0.261079      0.041810
O      13.35613      1.92243     13.20145        -0.206280     -0.176702     -0.035143
O      13.19003     13.31466      0.45078         0.259268      0.133344     -0.175392
O      13.20468     13.31055     13.22458         0.243682     -0.741953      0.851522
O       1.96273      1.83681      4.86345        -0.066369      0.418603     -0.567465
O       1.70384     13.34380      4.76138         0.545149     -0.647844     -0.431144
O      13.35807      1.89448      4.75747        -0.273572     -0.017671     -0.094613
O      13.22331     13.13377      4.79329        -0.215083      0.621967      0.280285
O       1.87271      1.90516      8.92660        -0.124167     -0.145555      1.107454
O       1.71390     13.27101      8.95773         0.438970     -0.309248     -0.759151
O      13.32120      1.87370      9.01415        -0.293087     -0.102419      0.323213
O      13.26349     13.29480      8.96688        -0.242781      0.070510      0.115181
O       1.92484      5.69807      0.49477        -0.042472      0.111445      0.378652
O       2.08406      5.66784     13.21265        -0.683866      0.229126      0.137739
O      13.38628      5.71164      0.45388        -0.288493      0.013088     -0.295602
O      13.38804      5.58090     13.25489        -0.280905      0.347624     -0.279950
O       1.91483      5.57154      4.75655        -0.094837      0.703800      0.578703
O      13.42613      5.77284      4.81528        -0.111164     -0.068115      0.506075
O       1.85709      5.70888      8.99867         0.032853      0.017881      0.382947
O      13.31166      5.55655      9.00345        -0.000764      0.283133     -1.260138
O       1.85311      9.59432      0.42403         0.662460     -0.259839      0.465733
O       2.01316      9.64028     13.13955        -0.367893     -0.354375      1.420987
O      13.30824      9.34057      0.37769         0.008041      0.610488     -0.162456
O      13.35656      9.61054     13.19006         0.022050     -0.226514     -0.393541
O       1.88654      9.49523      4.71924        -0.136837     -0.226853     -0.242200
O      13.15309      9.41055      4.81432         0.636080      0.416586     -0.706164
O       1.93715      9.45362      8.85223         0.005535      0.038204     -0.069120
O      13.03693      9.50964      8.83118         0.645212      0.198934      1.107647
O       5.83932      1.90876      0.54726        -0.405625     -0.525419      0.366340
O       5.64030      1.89491     13.22424        -0.088281     -0.153413     -0.428491
O       5.65292     13.36460      0.58787         0.122186     -0.098299     -1.121577
O       5.73274     13.20629     13.22870        -0.445892      0.035742     -0.736533
O       5.57700      1.88335      4.79905         0.476618     -0.082106     -0.139287
O       5.63344     13.23932      4.70007         0.112085     -0.037291     -0.281470
O       5.85512      1.69447      8.88480        -0.462744      0.618264      0.489092
O       5.59777     13.26891      8.88321         0.514516     -0.077391      0.861099
O       5.72428      5.59869      0.58286        -0.355027      0.250304     -0.685151
O       5.43841      5.72912     13.28381         0.672726     -0.341180      0.184060
O       5.69789      5.63317      4.60049        -0.306449      0.281957     -0.170300
O       5.66990      5.66069      8.87692         0.240595     -0.007074      0.258913
O       5.65529      9.37386      0.52214         0.064094      0.335606     -0.777201
O       5.55640      9.48386     13.25659         0.422941     -0.053205      0.055671
O       5.79823      9.39424      4.65946        -0.006622      0.117140      0.710890
O       5.53038      9.47357      8.92116         0.744082      0.038822      0.542291
O       9.46280      1.91343      0.36084        -0.099406     -0.010263      0.971083
O       9.58535      1.94064     13.26122        -0.162979      0.012541     -0.348768
O       9.48162     13.21791      0.39698        -0.131477      0.039601      0.441957
O       9.35552     13.34534     13.18275         0.323254     -0.300932      0.551740
O       9.64385      1.73809      4.66925        -0.516365      0.566002      0.377102
O       9.45926     13.27647      4.63097         0.043154      0.101187     -0.628580
O       9.59977      1.96597      8.90958        -0.249565     -0.247771      0.520109
O       9.40446     13.25229      8.99731        -0.038991      0.064629     -0.050371
O       9.65685      5.54966      0.49366        -0.390871      0.393045      0.727772
O       9.51483      5.66769     13.20930         0.063937      0.240491      0.677760
O       9.55591      5.90688      4.74748        -0.428199     -0.520568     -1.392907
O       9.46628      5.64907      8.82665         0.031307      0.034565      1.221123
O       9.61241      9.56004      0.36144        -0.473195     -0.332382     -0.389478
O       9.42127      9.28833     13.18082         0.156488      0.196131      0.801613
O       9.45207      9.39127      4.72768        -0.430181      0.234772     -0.571816
O       9.39440      9.61600      8.96901         0.441402     -0.328670      0.003277
O       3.77624      1.72265      2.69548         0.037746      0.793180     -0.624559
O       3.83015      1.80855     15.39716        -1.021122     -0.135020     -0.080313
O       3.70239     13.33755      2.68430        -0.309638     -0.263474     -0.174348
O       3.91382     13.37264     15.45765        -1.362733      0.009498     -0.139623
O      15.17541      1.77484      2.48412         0.383761      0.170005      0.151108
O       0.01837      1.85166     15.30509         0.680555      0.074025     -0.123059
O      15.06708     13.42672      2.84880         0.042066     -0.999697     -1.272761
O       0.01998     13.24279     15.42429        -0.077555     -0.195687     -0.579685
O       3.81573      1.82847      7.08799        -0.209411      0.537661     -0.563856
O       3.70925     13.27909      6.91281         0.442554     -0.384015     -0.168275
O      15.17957      1.72292      6.89199         1.000137      0.271767      0.448514
O      15.16045     13.40493      6.81904        -1.502709     -0.256600      0.773738
O       3.86723      1.95770     10.99029        -1.044801     -0.254345      0.185400
O       3.71603     13.12675     11.09408         1.378817      0.372020      0.029055
O       0.02764      1.66424     11.09800        -0.398534      0.686073      0.121611
O      15.19515     13.35009     11.06604        -1.139714     -0.298572      0.429565
O       3.70506      5.56175      2.65402         1.386959      0.724976     -0.208635
O       3.80514      5.64079     15.51318        -0.903972      0.817953      0.260167
O      15.17430      5.70392      2.72371         0.259831      0.758020     -0.419256
O       0.10033      5.63463     15.47976        -0.836418     -0.528597     -0.555094
O       3.78983      5.59601      6.95945        -0.150042      0.355679     -0.712089
O       0.01324      5.73214      7.01825         0.125977      0.138926     -0.403776
O       3.83372      5.62331     11.09803        -1.522656      0.078176     -0.194325
O       0.00211      5.60743     11.23160        -0.075897      0.465396     -0.330123
O       3.78479      9.56929      2.71058        -0.421445     -0.727843     -0.395448
O       3.88349      9.38559     15.46871        -1.400205      0.269462     -0.004819
O      15.15808      9.53836      2.49341         0.587541      0.130096      0.383050
O       0.11370      9.67160     15.35154        -0.452751      0.128498     -0.490033
O       3.81492      9.50614      6.80381        -0.128963     -0.141051     -0.281257
O      15.09362      9.55503      6.89375         2.157235     -0.601824      0.012116
O       3.80376      9.54330     11.01096        -0.288319     -0.231668      0.357164
O      15.11449      9.64157     10.82407         0.187592     -0.319247      0.535682
O       7.63552      1.81677      2.73019         0.505567      0.607397     -0.769755
O       7.59830      2.03230     15.22730         0.397513     -0.025406      0.641680
O       7.59158     13.23185      2.56440         0.020601      0.164974      0.189495
O       7.54942     13.17049     15.41217         0.621337      0.130865      0.263234
O       7.63649      1.87715      6.79727        -0.725770     -0.370016      0.094976
O       7.56106     13.23457      6.79512        -0.261214      0.541409      0.027858
O       7.61591      1.84448     11.18970        -0.082024      0.139294     -0.420155
O       7.50800     13.36612     11.18069         0.433223     -0.329806     -0.568247
O       7.59569      5.62503      2.57856         0.401502      0.154419      0.344047
O       7.56887      5.56433     15.36446         0.644512      0.268583     -0.022521
O       7.53145      5.75333      6.75776         0.590836     -0.475420     -0.049546
O       7.55515      5.70216     11.11945         0.717594      0.057285      0.055940
O       7.62573      9.44539      2.49878        -1.106460      0.127524      0.402475
O       7.58937      9.43046     15.42886        -0.392207     -0.172995     -0.302831
O       7.57526      9.41292      7.02294        -0.590703      0.975397     -1.000517
O       7.56212      9.36100     11.21539        -0.228698      0.265805     -0.349399
O      11.46931      1.91922      2.48272        -1.733314     -0.037322      0.152297
O      11.43696      1.72383     15.33762         0.142454      0.718579      0.013797
O      11.34417     13.33775      2.66046         0.051126     -0.483553     -0.423512
O      11.33379     13.20751     15.35402         0.088103      0.152830     -0.207849
O      11.40835      2.03048      6.74454        -0.478149     -0.263409      0.815699
O      11.27155     13.32638      6.89101         0.750234     -0.474088      0.123456
O      11.37246      2.01384     11.18731         0.717673     -0.136752     -0.223207
O      11.29520     13.26420     11.22766         0.230704     -0.323416     -0.466665
O      11.44799      5.66326      2.74163         0.190146      0.402358     -0.515032
O      11.39142      5.59616     15.40686         1.428925      0.753803     -0.418590
O      11.40155      5.61488      6.83603        -0.508847      0.346381      0.170838
O      11.38730      5.66315     11.08834         0.164330     -0.146302     -0.066406
O      11.33638      9.50831      2.58999         1.032327      0.096047     -0.218920
O      11.43821      9.37099     15.31377        -0.088829      0.102136     -0.448738
O      11.37258      9.57924      6.85225        -1.537584     -0.473387      0.080428
O      11.36416      9.43040     11.16069        -0.391198      0.035705      0.008899
O       1.76275      3.78003      2.59440         0.601123     -0.755040     -0.187511
O       1.99217      3.80535     15.36905        -0.209261     -1.549069     -0.299303
O       1.80470     15.17848      2.74992         0.431207      0.576425     -0.354974
O       1.96336     15.17442     15.30042        -0.324509      0.096043      0.069055
O      13.39024      3.79688      2.52273        -0.396794     -0.230826      0.005927
O      13.28608      3.74276     15.49164         0.375048      0.078156     -0.721323
O      13.18862      0.01694      2.67349         0.309014     -0.656759     -0.511533
O      13.25979     15.12788     15.31923         0.369884     -0.059273     -0.004029
O       1.82152      3.80630      6.96328         0.265915     -0.158397     -0.162909
O       1.95748     15.16588      6.83392        -0.090507      0.303296      0.760909
O      13.35993      3.75131      6.82999         0.327406      1.028465      0.486296
O      13.10744     15.19133      6.90906         0.267178      0.296858      0.134257
O       1.78450      3.74489     11.17843         0.621832     -0.193344     -0.452422
O       1.95769     15.12907     10.92918         0.476281      0.400112      0.839033
O      13.39236      3.77002     11.19920        -0.185451     -0.490609     -0.313385
O      13.17354     15.14684     11.18837         0.125191      0.167013     -0.194390
O       1.82850      7.63634      2.59921         0.526827     -0.094400      0.137851
O       1.79908      7.68045     15.32444         0.939824     -0.468594     -0.496872
O      13.31797      7.69618      2.60601        -0.139863     -0.841063      0.056194
O      13.58602      7.52719     15.28225        -0.736351      0.768762     -0.375253
O       2.02540      7.60672      6.78116        -0.833532     -0.219954      0.004702
O      13.24729      7.60015      6.99595         0.041050     -0.509814     -0.114420
O       1.70227      7.66125     11.06429         0.844297     -1.153627      0.137847
O      13.35542      7.60262     10.91292         0.028727     -1.025452      0.665722
O       1.86641     11.34178      2.71173        -0.560854      1.375109     -0.406674
O       2.08255     11.45516     15.54098         0.049553     -0.394314     -0.572007
O      13.23857     11.45541      2.52185         0.144400     -0.544714      0.071308
O      13.15201     11.33369     15.49905         0.815798      0.615287     -0.679846
O       1.85831     11.38622      6.83680        -0.173078     -0.609764      0.071253
O      13.21899     11.45140      6.92298         0.184969     -0.121509      0.225293
O       1.82194     11.30430     11.11990         0.268814      0.990108     -0.216583
O      13.19332     11.37088     11.03933        -0.055625      0.497287      0.282811
O       5.72813      3.67973      2.63403        -0.353773      1.292530      0.281375
O       5.51902      3.76250     15.36885         0.652731     -0.128185      0.411031
O       5.73220     15.13700      2.69706         0.110916      0.894905      0.098591
O       5.88608      0.00748     15.24999        -0.361813     -1.011922      0.673293
O       5.70783      3.78818      6.85793        -0.117936      0.074041     -0.075596
O       5.59237     15.16018      6.77422         0.604575      0.119695      0.426712
O       5.80739      3.77390     11.11724        -0.653711     -0.570756     -0.382465
O       5.62486     15.10466     11.05614        -0.241574      0.576277      0.266876
O       5.60027      7.59270      2.50660        -0.081195     -0.351572      0.550073
O       5.68290      7.49347     15.40198         0.161219      1.332029      0.344613
O       5.74488      7.53415      6.80499        -0.707990      0.950961     -0.199656
O       5.66827      7.53039     11.03624        -0.301002      0.736901      0.368243
O       5.60048     11.39053      2.62097         0.485015     -0.606083      0.019540
O       5.61468     11.36050     15.47369         0.312350     -0.304826     -0.223297
O       5.67634     11.40668      6.83412         0.049632     -1.159693     -0.088586
O       5.73473     11.35706     11.07495         0.223535     -0.085193      0.010832
O       9.59959      3.80617      2.68335        -0.790542     -1.039187     -0.276362
O       9.68139      3.75381     15.36707        -0.454185      0.429831      0.099103
O       9.51751     15.17112      2.48848        -0.128847      1.165015     -0.057519
O       9.50633     15.17147     15.33468        -0.651246     -0.578488      0.163307
O       9.36483      3.78471      6.77226         0.558245      0.579003     -0.343520
O       9.47282     15.17256      6.84574         0.034866      0.308449      0.065745
O       9.41934      3.83552     11.02696         0.154525     -0.657794      0.401192
O       9.58405      0.03413     11.14135        -0.489474     -0.459975     -0.379312
O       9.46965      7.60257      2.41716         0.249907     -0.459313      0.459491
O       9.63082      7.50677     15.37568        -1.330363      0.287166     -0.088273
O       9.32870      7.66540      6.85012         1.184276     -1.048397      0.130298
O       9.43757      7.52699     11.04760         0.426111      0.232329      0.215979
O       9.45329     11.35610      2.59266         0.123353      0.714115     -0.173567
O       9.44706     11.30155     15.34254         0.272988      0.357385     -0.392397
O       9.40978     11.41794      6.78200        -0.093609     -0.150490      0.146612
O       9.39516     11.33840     11.22752        -0.052979      0.508151     -0.357613
