  # total energy = -7878.29757621 
CRSYTAL
PRIMVEC
    15.2000000000000000    0.0000000000000000    0.0000000000000000
     0.0000000000000000   15.2000000000000000    0.0000000000000000
     0.0000000000000000    0.0000000000000000    17.000000000000000
PRESSURE
7.09425 7.57716 6.01619 0.030474 -0.087621 -0.019139
PRIMCOORD
320 1
Pb       3.71135      3.79978      4.26406         0.373477      0.394337     -0.318638
Pb       3.83195      3.82847     16.98523         0.433055     -0.067859     -0.221339
Pb       3.72003      0.06980      4.23238         0.289005     -0.391468      0.554650
Pb       3.79574     15.18179     16.94316         0.354585     -0.263007      0.116883
Pb       0.02222      3.81036      4.21392        -0.202863      0.056511      0.048569
Pb       0.06383      3.85966     16.95834        -0.542210     -0.263244      0.058384
Pb      15.17186      0.06674      4.33802        -0.184554     -0.278029     -0.388853
Pb       0.01676     15.15569     16.96498        -0.321583     -0.119735      0.080801
Pb       3.83669      3.82358      8.40499        -0.099355     -0.234847      0.467645
Pb       3.80270     15.13037      8.57067        -0.252604     -0.101749     -0.333223
Pb       0.05636      3.70107      8.54637        -0.072396      0.456381     -0.206318
Pb      15.07926     15.17564      8.47073         0.499536     -0.262027     -0.020037
Pb       3.81929      3.68689     12.63536        -0.436907      0.489785      0.764817
Pb       3.80360      0.04379     12.77734        -0.268620     -0.653381      0.071712
Pb      15.15682      3.79540     12.69267         0.321595      0.645317      0.480360
Pb       0.01781      0.00579     12.77372        -0.197728     -0.480099     -0.114493
Pb       3.74405      7.60226      4.27704         0.742890     -0.182465     -0.511081
Pb       3.74729      7.60980     16.96421         0.446092     -0.226533      0.291703
Pb      15.14529      7.66161      4.28274        -0.079766     -0.274605     -0.452921
Pb      15.11831      7.52930     16.94318         0.214132     -0.140296     -0.022826
Pb       3.80364      7.57738      8.41716         0.520122      0.252770      0.113507
Pb      15.12433      7.55537      8.48518         0.058749      0.203152     -0.218429
Pb       3.72093      7.54696     12.70991         0.430677     -0.368084     -0.051904
Pb       0.00819      7.54845     12.77668        -0.372022     -0.415707     -0.775995
Pb       3.67371     11.38828      4.27199         0.990993      0.458154     -0.298623
Pb       3.90246     11.38571      0.05924        -0.808302      0.394227     -0.008726
Pb       0.01461     11.40571      4.20346        -0.794944      0.005333      0.237941
Pb       0.03810     11.34219     16.90019        -0.088073      0.555237      0.469118
Pb       3.72191     11.37693      8.52622         0.492156     -0.028889     -0.413496
Pb      15.17245     11.35838      8.54923        -0.024752      0.334559     -0.470520
Pb       3.76154     11.30865     12.67557         0.174873      0.813249      0.509309
Pb      15.15645     11.21908     12.84538        -0.178921      0.926209     -0.996023
Pb       7.56270      3.80558      4.24550         0.063450      0.017288      0.023403
Pb       7.60757      3.78040      0.04845        -0.520436      0.338018     -0.588725
Pb       7.57099     15.13668      4.21492         0.265787      0.309823      0.398524
Pb       7.64028     15.14808     16.96775        -0.415354     -0.281668     -0.001859
Pb       7.63078      3.67705      8.47417        -0.239367      0.776247     -0.195839
Pb       7.60693      0.02493      8.51155         0.103484     -0.283957     -0.202757
Pb       7.64121      3.73859     12.74101        -0.297413      0.553628      0.004729
Pb       7.57760     15.14846     12.76119         0.090062      0.163938      0.312639
Pb       7.62389      7.51881      4.16254        -0.103018      0.115753     -0.061995
Pb       7.63608      7.64375      0.02705        -0.579465     -0.574704      0.143122
Pb       7.58045      7.60348      8.40922        -0.394970     -0.274878     -0.237704
Pb       7.56019      7.63501     12.67374        -0.238138     -0.761000      0.445523
Pb       7.53806     11.36221      4.26585         0.074086      0.411763     -0.345557
Pb       7.54500     11.41275     16.96454         0.474257      0.091081      0.545940
Pb       7.60559     11.41564      8.56164        -0.224130     -0.128974     -0.666355
Pb       7.63286     11.38968     12.69641        -0.697770     -0.471509      0.594989
Pb      11.35796      3.89533      4.16451         0.404309     -0.489746      0.065504
Pb      11.34108      3.70159     16.96101         0.343681      0.573126     -0.225441
Pb      11.43178     15.17047      4.20319        -0.229607      0.060901     -0.378387
Pb      11.39387      0.00519     16.97407        -0.115040     -0.515973      0.218153
Pb      11.40563      3.78206      8.47545         0.053004      0.252338     -0.228919
Pb      11.37017     15.19920      8.48393        -0.164925      0.043973     -0.509616
Pb      11.33473      3.68379     12.72696         0.331935      0.911977      0.197338
Pb      11.39152      0.00953     12.67341        -0.120462     -0.270672      0.411321
Pb      11.41333      7.52383      4.17841         0.160416      0.264544     -0.102353
Pb      11.38795      7.59951     16.95984         0.543934     -0.498526     -0.314376
Pb      11.36089      7.56096      8.57365        -0.137733     -0.321207     -0.574032
Pb      11.39089      7.63443     12.82013        -0.221309     -0.687553     -0.434569
Pb      11.37146     11.34722      4.21320         0.093555      0.185256     -0.048480
Pb      11.42450     11.39365     16.86434        -0.244016      0.384063      0.382824
Pb      11.38723     11.35783      8.49750        -0.582906      0.817017     -0.534734
Pb      11.32448     11.26947     12.61772         0.155282      0.695733      0.373269
Ti       1.89012      1.94029      2.26973         0.071139     -0.149753     -0.354063
Ti       1.91348      1.89588     15.06597        -0.328855     -0.392734     -1.275378
Ti       1.77814     13.39424      2.29284         0.334591     -0.511297      1.798462
Ti       1.85184     13.26767     14.93499         0.332017     -0.054733      2.826236
Ti      13.28711      1.90155      2.20575         0.119956     -0.272823      1.376352
Ti      13.29926      1.84891     14.96607         0.176076      0.595036      0.609876
Ti      13.21949     13.25764      2.20184        -0.181851      0.273827     -0.480380
Ti      13.18563     13.36062     14.84373         0.655216     -0.870985      1.884617
Ti       1.87224      1.85674      6.52544         0.440174      0.080017      1.788144
Ti       1.86069     13.29648      6.44699        -0.393053     -0.039376      0.147726
Ti      13.34841      1.90888      6.42076        -1.281714      0.154473     -0.466372
Ti      13.26963     13.28016      6.39839        -0.536735      0.141445      1.735942
Ti       1.83229      1.85781     10.79596         0.264002      0.287731     -0.945822
Ti       1.84116     13.32052     10.67040        -0.617452     -0.624386      0.479111
Ti      13.32344      1.92441     10.84774        -0.476601      0.218325      2.383924
Ti      13.20862     13.32965     10.64024         0.909170      0.000418      2.326062
Ti       1.91715      5.76444      2.15627         0.467600     -0.402267      2.525295
Ti       1.93848      5.61009     14.85612        -0.677642      0.710236      0.630691
Ti      13.36684      5.65960      2.18750         0.090414      0.026186     -0.599974
Ti      13.28966      5.55678     14.93835        -0.142249      1.224031      1.285574
Ti       1.92124      5.73618      6.48264        -0.101060     -0.775917      0.961321
Ti      13.34445      5.67793      6.47270        -0.840323      0.130533      1.369776
Ti       1.85691      5.67976     10.63237        -0.210377     -0.185097      1.771199
Ti      13.21031      5.78232     10.65324         0.748181     -0.645727      2.731745
Ti       1.97844      9.56367      2.27678        -0.279858     -1.650058     -1.359429
Ti       1.89462      9.40259     14.96596        -0.145021      1.395623      1.235601
Ti      13.30626      9.49280      2.19060         0.133579     -0.194106      1.361228
Ti      13.32054      9.53064     14.95779        -1.057426     -1.135537      2.281214
Ti       1.85261      9.50172      6.42816         0.238499     -0.235810      2.920444
Ti      13.20060      9.50989      6.54945         0.312470     -0.301502     -1.209697
Ti       1.87811      9.50641     10.69588        -0.540065      0.022356      0.409512
Ti      13.19681      9.51698     10.68263         0.882006     -0.611592      0.937042
Ti       5.71542      1.94806      2.29643        -0.265927     -0.316554      1.241579
Ti       5.75542      1.86848     14.88942        -0.909600      0.748442      0.220559
Ti       5.63109     13.37652      2.34360         0.230704     -1.454873     -1.623019
Ti       5.71233     13.19395     14.96384        -1.059792      0.921237     -0.435355
Ti       5.67443      1.79136      6.49912         0.353789      0.567788      0.398243
Ti       5.67510     13.29515      6.50587        -0.464064     -0.611079      1.151521
Ti       5.64824      1.86059     10.72989         0.642736     -0.516365      0.954682
Ti       5.65326     13.30462     10.77746        -0.392187     -0.958283      0.500165
Ti       5.70411      5.70805      2.18271        -0.675040     -0.088967      0.112068
Ti       5.69475      5.70604     14.92289         0.146367     -0.604408     -0.078729
Ti       5.66223      5.63634      6.36417         0.763813      0.460989      0.220922
Ti       5.61142      5.64787     10.70992         0.253486      0.555986     -0.157313
Ti       5.85127      9.51458      2.18003        -2.446779     -0.134454      1.091589
Ti       5.65841      9.46585     15.06729         0.439358     -0.835007     -0.105535
Ti       5.65919      9.51729      6.40627         0.265172     -0.344319      0.053040
Ti       5.64060      9.47029     10.76301        -0.433505      0.141334     -0.161118
Ti       9.45092      1.85925      2.20245         0.907090     -0.253678      1.093568
Ti       9.46680      1.90588     15.01338         0.466350     -0.648155     -0.008000
Ti       9.43966     13.29743      2.19172         0.093305     -0.319999      0.726089
Ti       9.48341     13.23485     14.93607        -0.173273      0.616315      1.295974
Ti       9.54591      1.96056      6.40451        -0.259654     -0.576930      1.932655
Ti       9.41934     13.38920      6.39286         0.513386     -1.087724      1.774457
Ti       9.46899      1.84147     10.73122        -0.016375      0.802368     -0.428965
Ti       9.42216     13.27486     10.77229         0.222553     -0.079856      0.870877
Ti       9.52243      5.65414      2.13697         0.060919      0.400600      2.041193
Ti       9.38215      5.76217     14.95542         1.973467     -0.689460     -0.302037
Ti       9.52683      5.73235      6.44840        -0.090647     -0.178736      2.221956
Ti       9.41713      5.64551     10.69453         0.492105      1.253329     -0.334389
Ti       9.56357      9.52947      2.13121        -0.337704     -0.170406      2.035921
Ti       9.44856      9.43222     14.96991         0.435075      0.173741      0.281571
Ti       9.47194      9.50447      6.37181        -0.576488      0.902499      2.183330
Ti       9.41049      9.41136     10.70078        -0.176087     -0.344049      1.046500
O       1.95137      1.79922      0.49437        -0.289318      0.126190     -0.049157
O       1.89506      1.87296     13.25326         0.039676     -0.391696      0.678687
O       1.82291     13.42575      0.57043         0.253377     -0.169223     -0.834776
O       1.85637     13.30910     13.25985        -0.080242     -0.131826     -2.436220
O      13.36412      1.88498      0.47845        -0.114972      0.115523     -0.528643
O      13.29378      1.94394     13.19712        -0.266420     -0.114445     -0.041614
O      13.22726     13.17540      0.41760        -0.139512      0.288583      0.416615
O      13.19818     13.37200     13.14535         0.097478     -0.290966     -1.078947
O       1.83585      1.82305      4.78929         0.091738      0.423102     -0.426240
O       1.68961     13.26224      4.62897         0.592011     -0.094018      1.312347
O      13.41974      1.96664      4.63558        -0.584493     -0.209362      0.689450
O      13.10168     13.27148      4.66134         0.375918     -0.120009     -0.512221
O       1.68275      1.84270      8.99563         0.408874      0.126582      0.596668
O       1.91671     13.24865      8.89886        -0.332981      0.074059      0.180277
O      13.28928      1.93782      9.17877         0.231864     -0.138635     -3.095533
O      13.16106     13.50883      8.92581         0.173943     -0.472805     -0.678514
O       1.99025      5.84849      0.44719        -0.342869     -0.564822     -1.160878
O       1.76119      5.73915     13.12566         0.652500     -0.125186     -0.168332
O      13.56637      5.59414      0.39415        -0.630557      0.281584      0.782537
O      13.16805      5.52488     13.21316         0.486453      0.661013     -0.692907
O       1.98924      5.67569      4.74289        -0.076105     -0.030827     -0.585867
O      13.14434      5.74338      4.75017         0.357520     -0.263500     -1.046223
O       1.92567      5.65050      8.88243        -0.147100      0.186249     -0.143847
O      13.34661      5.81544      8.94528         0.066730     -0.244223     -1.616751
O       1.86204      9.62880      0.44766         0.056068     -0.692570      1.404124
O       1.68521      9.68413     13.21727         0.859633     -0.914438     -0.140069
O      13.36659      9.33744      0.44474        -0.215113      0.726789     -0.359632
O      13.20941      9.44593     13.26911         0.281649      0.128478     -2.484513
O       1.71549      9.34866      4.73553         0.596882      0.545360     -1.539366
O      13.16263      9.54504      4.72862         0.205891     -0.280439      0.942594
O       1.90829      9.64666      8.92139        -0.154022     -0.562755      0.552767
O      13.22846      9.47662      8.94656        -0.160088     -0.019485     -0.919971
O       5.75900      2.07489      0.58454        -0.051293     -0.212174     -1.424265
O       5.68518      1.91918     13.10190         0.032177     -0.218260      0.654914
O       5.63878     13.30992      0.48391         0.136424     -0.123577      0.985387
O       5.61056     13.18237     13.15550         0.322143      0.136434      1.668576
O       5.70905      1.74474      4.73257        -0.209467      0.386690      0.214468
O       5.63449     13.24517      4.78116         0.156442      0.329561     -1.407741
O       5.80085      1.70891      8.99736        -0.367287      0.507890     -0.186554
O       5.75221     13.29715      9.00849        -0.241504      0.098636      0.120060
O       5.74686      5.58247      0.35365        -0.284186     -0.031079      1.410096
O       5.66778      5.70709     13.10542         0.037361     -0.246410      1.346446
O       5.53267      5.55441      4.53216         0.809239      0.651544      2.194541
O       5.50225      5.73186      8.87703         0.711746     -0.148134      2.018691
O       5.72281      9.39754      0.40953        -0.114214      0.485982      0.364699
O       5.64607      9.54611     13.30650        -0.032719     -0.182041      0.122468
O       5.79893      9.40443      4.62003        -0.129285      0.548289      0.422065
O       5.57439      9.54525      9.01012        -0.128401     -0.376528     -0.035799
O       9.42902      1.79972      0.43199        -0.124894      0.541609     -0.283168
O       9.61025      1.78556     13.24176        -0.545497      0.427076      0.067697
O       9.42558     13.17756      0.43968        -0.047086      0.334477     -0.521063
O       9.44453     13.40016     13.21283         0.053450     -0.400154     -1.076684
O       9.57945      1.80438      4.71007        -0.007831      0.342647     -1.038539
O       9.40123     13.34613      4.66490         0.463977     -0.190926     -0.573409
O       9.43140      1.85526      8.93431         0.252995      0.632955      0.569415
O       9.19594     13.25984      9.06424         0.776748      0.143263     -0.554266
O       9.45071      5.58158      0.44184         0.213533      0.037311     -1.357291
O       9.39985      5.92850     13.18131         0.292874     -0.591397      0.319686
O       9.58568      5.85928      4.74254        -0.029033     -0.667459     -1.958494
O       9.40835      5.71013      8.88015         0.003173     -0.069994      0.762787
O       9.66324      9.43795      0.42113        -0.406435      0.261177     -1.022287
O       9.43780      9.38793     13.17796         0.066021     -0.085729      0.449192
O       9.43890      9.66681      4.64551        -0.001399     -0.739557     -0.186961
O       9.38373      9.40212      8.97985         0.169103      0.247301     -0.986703
O       3.75955      1.83638      2.67732         0.640507      0.176270     -0.132839
O       3.79989      1.96532     15.34382         0.776574     -0.197630      0.096043
O       3.73157     13.35266      2.83581        -0.206739     -0.441712     -0.913451
O       3.79920     13.20048     15.37964         0.487427      0.483046     -0.125491
O       0.06299      1.90972      2.75985        -1.085749      0.195612     -0.750964
O      15.14881      1.70590     15.39742         0.643105      0.535323     -0.354045
O      15.06553     13.22930      2.64973         1.264970      0.100893     -0.295995
O      15.07898     13.27755     15.29212         0.657621      0.196286     -0.077770
O       3.78347      1.77608      7.01570        -0.244416      0.026868     -0.705225
O       3.70861     13.45092      6.86113         0.413158     -0.416796     -0.112970
O      15.12528      1.93758      6.95016         1.165580      0.058554     -0.173576
O      15.15925     13.21855      6.94589         0.025186      0.067008     -0.424607
O       3.73110      1.79878     11.18626         0.714949     -0.112428     -0.677158
O       3.70921     13.41123     11.06398         1.017008     -0.466281      0.083855
O       0.02436      1.85336     11.30263        -0.848837      0.044463     -0.510223
O      15.10439     13.24092     11.01323         0.342777      0.177182     -0.035156
O       3.83923      5.55625      2.64911        -1.019421      0.483767     -0.790044
O       3.80425      5.66674     15.36284         0.122819     -0.261053     -0.341408
O       0.04754      5.55609      2.64714        -0.063384      0.780980     -0.239295
O       0.08028      5.62402     15.28198        -0.361201      0.222141      0.179473
O       3.84200      5.70869      6.89649        -0.767859     -0.152912     -0.512454
O       0.04218      5.62865      6.82438        -0.571552      0.377844      0.002364
O       3.74490      5.57323     11.22928         0.093574      0.481431     -0.850121
O      15.18825      5.76867     11.11420         0.345652      0.066136     -0.413411
O       3.88128      9.54901      2.64962        -1.462390     -0.072405     -0.163101
O       3.75057      9.48526     15.51378         0.310665      0.264810     -0.903490
O      15.15737      9.45910      2.76765        -0.037311      0.190131     -0.901959
O      15.18140      9.60265     15.31230         0.539097     -0.321311     -0.119354
O       3.80804      9.47246      6.83298        -1.653766     -0.152649     -0.399841
O      15.03177      9.51127      6.92763         1.900360     -0.128407     -0.160157
O       3.77040      9.47596     11.29158        -1.001418      0.128649     -0.776185
O      15.09471      9.43447     11.06659         1.343938      0.541530      0.122201
O       7.65295      1.89472      2.82616        -0.812456     -0.036351     -0.932395
O       7.58245      1.87779     15.29873         0.372470      0.020386      0.130617
O       7.58016     13.33828      2.73637        -0.815402     -0.056413     -0.554093
O       7.60632     13.19051     15.41261        -1.034731      0.313521     -0.389685
O       7.61013      1.97894      6.92528         0.025982     -0.439295     -0.771675
O       7.53683     13.24921      6.87172         0.259436      0.249300     -0.258957
O       7.59699      1.97777     11.18126         0.163184     -0.352299     -0.412766
O       7.55870     13.24182     11.35676         0.361035      0.274229     -1.057768
O       7.57625      5.63797      2.56939         0.407944      0.263142      0.182902
O       7.64904      5.78167     15.37591        -1.978676     -0.411822     -0.053440
O       7.55626      5.68898      6.84125        -0.192631     -0.076916     -0.571773
O       7.54674      5.58532     11.18696        -0.671174      0.322631     -0.875782
O       7.62346      9.41120      2.54161         0.664322     -0.041181     -0.026939
O       7.59113      9.41145     15.49038        -0.102315      0.146547     -0.629999
O       7.47787      9.51792      6.97280         1.235197      0.171508     -0.768814
O       7.45800      9.39297     11.10215         1.547045      0.459806     -0.066350
O      11.38016      1.84531      2.53220         0.197654      0.468562     -0.030596
O      11.38886      1.86534     15.48785        -0.384996      0.322868     -0.457566
O      11.30578     13.30583      2.51664         0.546052     -0.133040      0.401713
O      11.30472     13.26605     15.31188         0.456819      0.034716      0.206820
O      11.47769      1.94720      6.93746        -0.825760     -0.520335     -0.289804
O      11.35661     13.39095      6.97507        -0.332369     -0.422947     -0.612121
O      11.36620      1.95706     11.16443         0.086004     -0.296610     -0.403296
O      11.33578     13.32686     11.16706        -0.606788     -0.268124     -0.584433
O      11.45568      5.62275      2.52941        -1.014833      0.374814     -0.127231
O      11.42018      5.71762     15.29709        -0.332116     -0.215632      0.456931
O      11.42833      5.76047      6.99864        -0.941916     -0.590633     -0.346684
O      11.39018      5.75368     10.94511        -0.870870     -0.071670      0.178116
O      11.38068      9.50956      2.62490         0.324038     -0.230436     -0.367083
O      11.38857      9.28772     15.31276        -0.059891      0.386557     -0.087309
O      11.34851      9.60171      6.92504        -1.293863     -0.296704     -0.257058
O      11.31312      9.40125     11.10423         0.092609      0.277306     -0.062406
O       1.95673      3.82004      2.52590        -0.222991     -0.437742      0.196991
O       1.79099      3.78285     15.30530         0.752788     -0.607804      0.281009
O       1.79313      0.00240      2.85848         0.155672      0.095308     -1.222401
O       1.97838     15.19060     15.46773        -0.407722     -0.512439     -0.537391
O      13.25730      3.85099      2.66210         0.365986     -1.561247     -0.068108
O      13.33720      3.71416     15.47671        -0.087743     -0.033048     -0.344244
O      13.28006     15.18442      2.55370         0.145484      0.268082      0.132130
O      13.15873      0.00285     15.35239         0.095648     -0.540211     -0.147398
O       2.01130      3.79789      6.93615        -0.647706     -0.727642     -0.572864
O       1.78017     15.14816      6.89473        -0.294712      0.965668     -0.270038
O      13.25242      3.80046      6.86054         0.207509     -0.039329      0.167047
O      13.33472     15.16790      6.74915        -0.058186      1.014040      0.152241
O       1.85970      3.76987     11.14371        -0.110369      0.024136     -0.556888
O       1.82839     15.15905     11.11815        -0.207965      0.359613      0.207733
O      13.39345      3.88809     11.18098        -0.630166     -1.010096     -0.708484
O      13.24131     15.19813     11.21503         0.307463      0.266904     -0.555953
O       1.87232      7.59223      2.72755         0.238099      0.179257     -0.546587
O       1.98689      7.57153     15.26471        -0.654739      0.322693     -0.225525
O      13.28469      7.50589      2.58821         0.185371      1.273423      0.024258
O      13.48302      7.49944     15.39928        -0.769656      0.608380     -0.796479
O       1.85263      7.59444      6.89240        -0.059482      0.460791     -0.154286
O      13.12167      7.56082      6.88803         1.089120      1.004375     -0.090040
O       1.95850      7.57721     11.08853        -0.231123      0.573185     -0.317342
O      13.27209      7.62902     11.14371        -0.079092     -0.063153      0.115497
O       1.87787     11.32964      2.67330        -0.241935      1.661923      0.066854
O       1.87019     11.44422     15.49704         0.150425     -0.489365     -0.747450
O      13.19503     11.38427      2.64546         0.256168     -0.700158     -0.465862
O      13.08229     11.39072     15.23327         0.746854     -0.151628     -0.131102
O       1.91887     11.35747      6.78467        -0.206393      0.269796     -0.133764
O      13.22901     11.46739      6.94500        -0.220495     -0.863912      0.012331
O       1.90191     11.40530     11.09223        -0.204416     -0.433132      0.014242
O      13.17265     11.39796     11.02648        -0.129767     -0.201745      0.030793
O       5.75185      3.77731      2.75592        -0.255889     -0.269298     -0.598701
O       5.81654      3.81347     15.32696        -0.282516     -0.410394     -0.163031
O       5.67273     15.19784      2.50552         0.166794      0.849415      0.615257
O       5.78295      0.00905     15.31694        -0.528861     -0.660505     -0.231634
O       5.64445      3.73502      6.91266         0.016149      0.178976     -0.579121
O       5.74634     15.16343      7.00433        -0.170339      0.333134     -0.498485
O       5.62217      3.69197     11.06261         0.005894      1.031011     -0.320206
O       5.76585     15.11381     11.25835        -0.291471      1.417185     -0.500349
O       5.52736      7.57454      2.60138         1.008887     -0.099430     -0.430759
O       5.73475      7.52602     15.46893        -0.533074      0.799562     -0.581551
O       5.60183      7.58706      6.76908         0.433851     -0.438701     -0.106524
O       5.53338      7.56336     11.18816         0.329818     -0.577892     -0.710433
O       5.70481     11.45065      2.59856         0.122938     -1.061569     -0.033344
O       5.70117     11.33009     15.50349         0.011445      0.439930     -0.599383
O       5.48357     11.40636      6.86544         0.581308      0.128516     -0.225492
O       5.67994     11.38314     11.14829        -0.285156      0.068492     -0.091968
O       9.49907      3.78744      2.61959        -0.131927     -0.257958     -0.092999
O       9.43553      3.80264     15.25753         0.363650     -0.277483      0.206351
O       9.50052     15.18058      2.62886        -0.311434      0.481494     -0.324615
O       9.42554     15.13746     15.45299         0.183612      0.355740     -0.385653
O       9.53788      3.85753      6.71758         0.004974     -0.855086      0.363665
O       9.47655      0.02599      6.80098        -0.140666      0.425602      0.272544
O       9.57754      3.87246     11.15202        -0.539000     -1.607573     -0.023948
O       9.44310      0.01490     11.00260        -0.088595     -0.373915      0.341651
O       9.49540      7.54461      2.59465         0.082644      0.464533     -0.338085
O       9.45752      7.55741     15.59127         0.383769      0.595753     -0.841242
O       9.42471      7.63405      6.73855         0.086035      0.827267      0.247444
O       9.42536      7.55826     11.12039        -0.159113      0.052386     -0.347546
O       9.37383     11.40469      2.58944         0.294016     -0.623049     -0.218693
O       9.38627     11.30971     15.28246         0.724433     -0.027726     -0.091359
O       9.40534     11.49154      6.94874         0.449067     -1.206712     -0.464256
O       9.45665     11.32238     11.13365        -0.183313      0.341891     -0.214590
