  # total energy = -7866.42669151 
CRSYTAL
PRIMVEC
    15.010000000000000    0.0000000000000000    0.0000000000000000
     0.0000000000000000   15.010000000000000    0.0000000000000000
     0.0000000000000000    0.0000000000000000    16.400000000000000
PRESSURE
18.9526 18.9327 13.2458 0.309781 -0.082229 -0.040753
PRIMCOORD
320 1
Pb       3.93026      3.69172      4.24907        -0.748562      0.270461     -0.308197
Pb       3.80577      3.76686      0.08097        -0.498283      0.051587     -0.860673
Pb       3.70899      0.10163      4.11308        -0.082544     -0.920111     -0.095852
Pb       3.80187      0.01526     16.35959        -0.841929     -0.313093      0.098832
Pb      14.93086      3.65341      4.07951         0.382113      0.258001     -0.169180
Pb       0.00205      3.67079     16.34233        -0.003323      0.393969      0.383783
Pb      14.94896      0.03831      4.18582         0.673004     -0.062335     -0.814191
Pb      14.91068     14.98109      0.02888         0.654069      0.657285     -0.261325
Pb       3.78618      3.65742      8.26697         0.078090      0.386159     -0.008653
Pb       3.81632     14.94253      8.25508        -0.211146      0.042223     -0.421248
Pb       0.01118      3.74159      8.25952         0.252450      0.077934     -0.574609
Pb      14.94316     14.90974      8.15554         0.651519      0.375831      0.181354
Pb       3.81121      3.70879     12.23583        -0.199853      0.651306     -0.164271
Pb       3.75060      0.00859     12.41121        -0.385137     -0.360335     -0.626003
Pb      15.00746      3.68735     12.30286         0.142890      0.412656      0.044978
Pb       0.00605      0.00975     12.28030         0.018119     -0.603329      0.081290
Pb       3.60495      7.55830      4.06845         0.348209     -0.375130      0.313704
Pb       3.76795      7.42793      0.14810        -0.180357      0.530757     -0.662930
Pb      14.94211      7.48869      4.09264         0.305360      0.227457      0.126422
Pb      14.97246      7.50547      0.05308        -0.052628      0.128764     -0.280307
Pb       3.70662      7.57195      8.08108         0.181930     -0.675100      0.528222
Pb      14.99710      7.53604      8.19081         0.236830     -0.478398      0.045850
Pb       3.75409      7.55399     12.29085         0.085489     -0.153030     -0.424490
Pb       0.02425      7.37154     12.30360         0.133955      0.521559     -0.319118
Pb       3.62657     11.20318      4.15034         0.104456      0.798281     -0.106644
Pb       3.74287     11.06682     16.31882        -0.138421      1.004272      0.532828
Pb      14.97417     11.20321      4.08320         0.253528      0.452007      0.359195
Pb      14.95055     11.35589      0.05650         0.222427     -0.773673     -0.578983
Pb       3.69461     11.11443      8.22181         0.250295      0.533506     -0.429713
Pb      14.98545     11.16676      8.14852        -0.160319      0.579946      0.052198
Pb       3.76082     11.27652     12.33536         0.067906     -0.138369     -0.464202
Pb       0.00465     11.26819     12.31523         0.026188      0.393766     -0.316135
Pb       7.49737      3.71450      4.11839        -0.113193      0.169053      0.484824
Pb       7.49316      3.82898     16.35732         0.725354     -0.769858     -0.011141
Pb       7.47704     14.88442      4.17901        -0.472095      1.026658      0.185624
Pb       7.35279     14.99163     16.37070         0.911642      0.262142      0.244611
Pb       7.50323      3.67141      8.22260        -0.031251      0.449673     -0.439241
Pb       7.49536      0.00105      8.25191         0.032083     -0.163139     -0.636337
Pb       7.45158      3.71515     12.27334         0.214606      0.843127     -0.466692
Pb       7.55781     14.88132     12.37180        -0.237622      0.072463     -0.581842
Pb       7.33022      7.51444      4.00006         0.845616     -0.239422      0.834820
Pb       7.46024      7.43538      0.01564         0.446237      1.090371      0.230318
Pb       7.48074      7.49442      8.31870         0.459323     -0.317362     -0.835560
Pb       7.55360      7.45278     12.43602        -0.252664     -0.103007     -1.066932
Pb       7.48210     11.31332      4.06128        -0.471833     -0.408372      0.838726
Pb       7.51940     11.25896      0.04092        -0.227383     -0.080461     -0.368372
Pb       7.44208     11.20734      8.20940         0.631346      0.374529      0.418667
Pb       7.53393     11.18529     12.31415        -0.469661      0.297281     -0.219067
Pb      11.18157      3.74605      4.10782         0.392701      0.239939      0.279609
Pb      11.31006      3.80871     16.36635        -0.475922     -0.613387      0.167508
Pb      11.38942     14.95928      4.18384        -0.530788      0.647482     -0.227172
Pb      11.13357     14.89532      0.05042         0.113157      1.481665      0.501167
Pb      11.40933      3.73978      8.13112        -1.206107      0.568215      0.164382
Pb      11.32121     14.90042      8.21753        -0.631879      0.429076      0.204074
Pb      11.32140      3.70324     12.20296        -0.628205      0.503051      0.385163
Pb      11.29244      0.09595     12.27941        -0.332767     -0.536338     -0.191027
Pb      11.24024      7.45992      4.13990        -0.712699      0.295024      0.421207
Pb      11.15067      7.44872      0.07584         0.471853      0.506616     -0.048854
Pb      11.12609      7.44386      8.18001         0.029053      0.425715     -0.304986
Pb      11.27204      7.36220     12.28057        -0.117861      0.416708     -0.134800
Pb      11.29050     11.26352      4.12299         0.016062     -0.100909      0.215584
Pb      11.21815     11.17020      0.01896         0.064232      0.200356      0.282534
Pb      11.13100     11.20919      8.25789         0.321715     -0.130634     -0.529805
Pb      11.19761     11.29249     12.25344         0.146578     -0.049671     -0.217617
Ti       1.95872      1.91589      2.16089        -1.407795     -0.910693      0.147461
Ti       1.95842      1.90889     14.52822        -1.210493     -0.062383      0.463973
Ti       1.82011     13.13523      2.02479         0.804017      0.121381      2.116052
Ti       1.83613     13.16024     14.37311        -0.866780     -0.499713      0.732120
Ti      13.05764      1.88158      2.09129         1.139761      0.472832      1.078057
Ti      13.13151      1.86298     14.37140        -0.559916     -0.232790      1.739453
Ti      13.15606     13.16634      2.08791        -0.088835     -0.646640      0.368735
Ti      13.03036     13.13014     14.44869         1.308518     -0.023715     -0.789912
Ti       1.87709      1.89476      6.26231        -1.198060     -0.415947      0.209435
Ti       1.90996     13.15540      6.18975        -0.180357     -0.733275      1.398472
Ti      13.11310      1.95248      6.20881         0.705737      0.041456      0.618101
Ti      13.15280     13.15963      6.23833         0.061043     -2.283247      1.216896
Ti       1.82807      1.88978     10.31117         0.500684     -0.926358     -0.744814
Ti       1.83999     13.11485     10.23804        -0.604506      0.684265      1.224567
Ti      13.06653      1.88551     10.30416        -0.239877     -0.103176     -0.305896
Ti      13.06268     13.10573     10.25773         0.470365     -0.234143      0.401326
Ti       1.89567      5.61471      2.07474        -0.807216     -0.384788      0.862039
Ti       1.89057      5.69824     14.37895         0.415705     -0.746019      1.441728
Ti      13.15848      5.66147      2.21810        -0.507789     -1.474409     -0.444468
Ti      13.13020      5.70503     14.48865         0.467312     -1.209236      0.033082
Ti       1.89935      5.59249      6.13073        -0.836116     -0.600519      1.250814
Ti      13.14456      5.70250      6.21885        -0.532815     -0.435864      0.783040
Ti       1.93594      5.63037     10.29235        -0.313684      0.035488      0.640243
Ti      13.15770      5.67298     10.28288        -0.643904     -1.470773     -0.083621
Ti       1.78393      9.36829      2.06376        -0.342293      1.127713      0.753574
Ti       1.90568      9.38647     14.35376        -0.463559      0.807242      0.522595
Ti      13.01631      9.37134      2.21612         1.091177      0.919709      0.111955
Ti      13.14635      9.38840     14.37844        -0.454080     -0.207460      1.271031
Ti       1.87295      9.34897      6.17024        -0.133783      0.648596      0.720378
Ti      13.11594      9.33960      6.31794        -1.194902      2.021709      0.534929
Ti       1.88334      9.37556     10.25094         0.424372     -0.033171      1.079978
Ti      13.13178      9.35102     10.31523        -0.147765      0.531123     -0.216468
Ti       5.61161      1.85987      1.96688         1.344476     -0.684460      1.766895
Ti       5.67427      1.94951     14.26465        -0.665747      0.171431      1.938095
Ti       5.52699     13.10295      2.15159        -1.407786     -0.385338      0.557841
Ti       5.58981     13.16752     14.47077        -0.343311     -1.337939     -0.956755
Ti       5.61952      1.83209      6.19444         0.263410      0.725962      1.995972
Ti       5.62324     13.03608      6.24433        -0.141235      0.847989      0.184240
Ti       5.65096      1.77199     10.37106        -1.576195      0.803297     -0.656432
Ti       5.57106     13.08868     10.37431         0.274433     -1.569815     -0.091298
Ti       5.65385      5.61750      2.06396        -0.641580     -0.218559      1.572481
Ti       5.65832      5.73077     14.50460        -0.883045     -0.914380     -0.182275
Ti       5.57168      5.61890      6.21038         0.618059     -0.368704      0.851969
Ti       5.63044      5.69391     10.17355        -0.011194     -1.490135      1.483657
Ti       5.52225      9.39638      2.21882         0.152794     -0.121611     -0.270067
Ti       5.68068      9.43356     14.33574        -0.460526      0.387625      0.980701
Ti       5.71771      9.34169      6.20409        -1.102082      0.064015      0.656144
Ti       5.66858      9.28672     10.24772        -0.319439      1.547006      1.635299
Ti       9.34293      1.88785      2.21313         0.138601      0.373106     -1.050434
Ti       9.37473      1.92435     14.33786         0.360329      0.289885      1.775283
Ti       9.32820     13.21533      2.19815         0.472575     -0.704633      0.129830
Ti       9.33335     13.23635     14.43452         0.182584     -1.602082      0.717764
Ti       9.40645      1.90790      6.21940        -1.215334      0.391978      0.887171
Ti       9.42189     13.19014      6.15446        -0.479589     -0.482889      1.922563
Ti       9.30514      1.88640     10.27045         0.626456     -0.050061     -0.207900
Ti       9.28854     13.11008     10.27649         0.244892     -0.294184      0.888937
Ti       9.37409      5.66660      2.17937        -0.072221     -0.107086      1.239012
Ti       9.37919      5.66064     14.35031         0.334450     -1.223167      0.370060
Ti       9.28191      5.68204      6.15962         0.178664     -0.624925      1.744026
Ti       9.39572      5.61206     10.19689        -1.207016      0.002180      0.984027
Ti       9.27349      9.45093      2.18589         0.807618     -0.977566      0.818053
Ti       9.41681      9.40682     14.42183        -0.183027      0.549422      0.609652
Ti       9.30889      9.40037      6.21604         1.055802     -0.163932      0.866361
Ti       9.39703      9.32645     10.42634        -1.228106      0.184195      0.191835
O       2.01521      1.86420      0.37566         0.030120      0.253383     -0.836367
O       1.88939      1.90443     12.76345        -0.223772     -0.020452     -1.461506
O       1.65639     13.11517      0.29214         0.214644      0.005426     -1.308743
O       1.73857     13.12468     12.59422         0.525154      0.003536     -0.827856
O      13.06175      1.75099      0.36367        -0.169344      0.382775     -1.789630
O      13.05735      1.81651     12.62151        -0.072211      0.293374     -1.817425
O      13.37549     13.17815      0.26103        -0.842044     -0.102093      0.422376
O      12.92150     13.00854     12.61299         0.087989      0.350202      0.142147
O       1.78844      1.92989      4.45460         0.379333     -0.156595     -0.884049
O       1.75308     13.11521      4.47006         0.411707      0.280160     -1.110291
O      13.10694      2.01603      4.43563         0.232702     -0.705530     -0.373552
O      13.06857     13.10303      4.47390        -0.111418      0.229156     -1.416834
O       1.86054      1.91121      8.49525        -0.304859     -0.304081      0.844085
O       1.87857     13.19048      8.48746         0.019869     -0.047915     -0.650185
O      12.96391      1.91313      8.50848         0.637450     -0.081502     -0.318278
O      13.10945     13.09060      8.45661         0.128837      0.467942      0.308053
O       1.73428      5.76519      0.31986         0.288685      0.074752     -0.803359
O       1.87820      5.58260     12.63193        -0.129604      0.127926     -0.911045
O      13.13028      5.64033      0.39952        -0.011906      0.290085     -0.245676
O      13.13274      5.59817     12.69936        -0.123400      0.369653     -0.735331
O       2.04776      5.54105      4.38048        -0.254023      0.113688     -0.913713
O      13.11434      5.63536      4.45950         0.025675      0.284659     -1.184704
O       1.90137      5.64484      8.54846        -0.413041     -0.098428     -0.963368
O      13.15695      5.56817      8.50396        -0.101027      0.485069     -0.273894
O       1.99296      9.35429      0.29357        -0.642546     -0.278957     -0.490263
O       1.89935      9.49133     12.55177        -0.235280     -0.335770     -0.168117
O      12.96273      9.37351      0.47871         0.293200     -0.252026     -1.241205
O      13.11581      9.29608     12.64472        -0.115894      0.284742     -1.920449
O       1.74624      9.40403      4.41068         0.050331     -0.389031     -0.589833
O      13.13599      9.35862      4.56631        -0.034801     -0.025450     -1.824616
O       1.99190      9.28920      8.46300        -0.632050      0.188783     -0.502584
O      12.98201      9.34122      8.53210         0.368219     -0.129206      0.005913
O       5.53736      1.78271      0.21063         0.298568      0.266986     -0.612193
O       5.50465      1.87978     12.51711         0.246369     -0.251482     -0.911172
O       5.56693     13.13556      0.37022         0.265291      0.114395     -1.144354
O       5.53711     13.08862     12.63659         0.077927      0.229011      0.649923
O       5.69361      1.98297      4.46057        -0.431654     -0.223915     -1.593447
O       5.59120     13.01521      4.48364        -0.263024      0.445348     -0.681442
O       5.61123      1.79471      8.56309        -0.195180     -0.344977     -0.116972
O       5.65792     13.22836      8.56889        -0.139426     -0.293480     -0.429080
O       5.77296      5.78037      0.30307        -0.232881     -0.496202     -1.187604
O       5.76577      5.67345     12.77146        -0.377744      0.113582     -1.770280
O       5.56811      5.56302      4.40892        -0.369403     -0.105235     -0.839702
O       5.42374      5.69268      8.45555         0.753250      0.002097     -0.797440
O       5.47645      9.41474      0.43131         0.408848     -0.112442     -0.405749
O       5.53521      9.43154     12.58703         0.209020     -0.341693     -0.403504
O       5.63630      9.32619      4.44498         0.075865      0.154942     -0.944543
O       5.57856      9.28215      8.49606         0.336086      0.260977     -1.325195
O       9.37165      2.01782      0.38521        -0.274405     -0.369517      0.820571
O       9.35566      1.90733     12.59849        -0.011735     -0.262312     -1.680973
O       9.27584     13.26756      0.44589        -0.564077     -0.305297     -1.089473
O       9.29306     13.12843     12.66099         0.766461      0.163399     -0.200330
O       9.28728      1.91182      4.45033         0.037476     -0.282728     -0.743161
O       9.59707     13.21616      4.39889        -0.526041     -0.061414     -1.017435
O       9.36133      1.89061      8.47358        -0.048436     -0.090353      0.549622
O       9.27802     13.12017      8.54377        -0.125001      0.071491     -1.892057
O       9.33554      5.60720      0.42389        -0.118482     -0.092106     -1.818211
O       9.26707      5.57602     12.57856         0.282069      0.341968      0.127247
O       9.30290      5.73651      4.43045        -0.106523     -0.024416     -1.681193
O       9.29871      5.68300      8.45799         0.298731      0.040962     -1.160426
O       9.40717      9.48888      0.43137        -0.185924     -0.348377     -1.177320
O       9.30756      9.39684     12.64461         0.577645     -0.106002     -0.073994
O       9.18086      9.30666      4.50820         0.310614      0.250165     -2.250483
O       9.30473      9.39394      8.67014         0.004055     -0.259114     -1.703663
O       3.87206      1.94506      2.49504        -1.948183      0.267166      0.254036
O       3.77498      1.82246     14.67973         0.476127      0.008634      0.155842
O       3.64188     12.91974      2.47666         0.502056      0.718120     -0.125289
O       3.67452     13.17358     14.68981         1.312370      0.221660      0.044867
O      14.96740      1.89390      2.34852         0.837401     -0.058721      0.390106
O      14.98195      1.93190     14.72904         0.602025      0.049946      0.016898
O       0.02516     13.26151      2.50097        -1.318205     -0.086959     -0.032587
O      14.94523     13.12767     14.50752        -0.435187     -0.527880      0.535683
O       3.66040      2.07630      6.49618         1.950959     -0.309581     -0.230306
O       3.77234     12.95602      6.52441        -0.785201      0.314606      0.282690
O      14.94705      1.85064      6.57443         0.062749     -0.490608      0.108122
O       0.02747     13.12352      6.58183        -0.690429      0.602818     -0.064532
O       3.71033      1.92159     10.55618        -0.108671     -0.782574      0.391961
O       3.65387     13.14778     10.65208         0.811858     -0.120740     -0.022814
O      14.87405      1.88205     10.66970         1.538530      0.216900     -0.135664
O      14.93724     13.16415     10.58253        -0.377892      0.038102      0.249957
O       3.73586      5.74163      2.12290         0.583413     -0.583247      0.483043
O       3.82339      5.68320     14.83612        -1.380076      0.292316      0.025813
O       0.00463      5.56066      2.48050        -0.590882      0.681712      0.118683
O       0.00336      5.61317     14.74457        -0.278127      0.437825     -0.177445
O       3.70082      5.50132      6.55637         0.469993     -0.384918     -0.347073
O      15.00780      5.77171      6.44655         0.353204      0.240093      0.196027
O       3.76008      5.63362     10.64177         0.354923     -0.130993      0.451984
O      14.97589      5.58737     10.64212         0.583210      0.129240      0.111485
O       3.61407      9.44664      2.54860         0.705814     -0.502188     -0.297741
O       3.79745      9.39322     14.67035        -0.884590     -0.203797     -0.136641
O      14.92863      9.37685      2.42582         0.390253     -0.622910     -0.077882
O      14.94446      9.36750     14.69004         1.426604      0.022086      0.296569
O       3.78795      9.43976      6.40212        -0.620367      0.248204      0.291388
O      14.96595      9.28443      6.59833         1.255038     -0.415070      0.112221
O       3.76809      9.34246     10.51402        -0.924735      0.283805      0.487212
O       0.00672      9.25351     10.43748        -0.655506     -0.008477      0.505231
O       7.42789      1.71150      2.45900         0.572946      0.034261     -0.314294
O       7.48412      1.97261     14.55847        -0.001680     -0.088681      0.495908
O       7.33423     13.25044      2.51924         2.373740     -0.392147     -0.185269
O       7.49055     13.05461     14.72884        -0.513220      0.348173      0.318506
O       7.42034      1.76958      6.60863         1.436685     -0.183925     -0.196381
O       7.49909     13.26863      6.39854         0.640833      0.275838      0.275978
O       7.43798      1.86124     10.66740         1.396744     -0.615455      0.073143
O       7.46365     13.10931     10.77459        -0.770867      0.474677     -0.249513
O       7.45475      5.68088      2.45566         0.497701      0.197921     -0.195492
O       7.52378      5.54248     14.73409         0.544400      0.409686      0.459435
O       7.43732      5.65460      6.54752        -0.507043      0.478829      0.095422
O       7.48146      5.71491     10.44047        -0.450050      0.271844      0.509331
O       7.43540      9.39911      2.44732        -0.262942     -0.305477     -0.256387
O       7.50167      9.61208     14.74868         0.346478     -0.815017      0.096136
O       7.51476      9.43101      6.63105        -1.114051     -0.734463      0.336097
O       7.48667      9.30933     10.75626        -0.328454     -0.659682     -0.288827
O      11.25766      1.91000      2.49115        -1.569443     -0.034800      0.181233
O      11.17223      1.73642     14.64897         1.414287      0.123188      0.234726
O      11.27158     13.01961      2.13707        -0.092050      0.337266      0.843911
O      11.18900     13.25231     14.91747         0.168670     -0.591191     -0.747772
O      11.26748      2.04763      6.44484        -0.300495     -0.158506      0.067483
O      11.26763     13.07484      6.61998        -0.491837     -0.046250     -0.279439
O      11.18204      1.88966     10.59647        -0.259635      0.335606      0.426852
O      11.17218     13.03723     10.44360         0.351468     -0.416947      0.736111
O      11.21586      5.59743      2.48609         0.571843      0.143382     -0.072018
O      11.26215      5.65452     14.76274        -1.111870      0.210128     -0.018726
O      11.17239      5.58057      6.41402         0.988671      0.128626      0.487180
O      11.17860      5.51474     10.55055         2.194438      0.293472      0.524143
O      11.21518      9.47058      2.56125        -1.173468      0.179347      0.242453
O      11.26564      9.38505     14.81232        -1.073826     -0.450772     -0.338495
O      11.15743      9.43921      6.50810         0.767039      0.091315      0.278426
O      11.18893      9.40742     10.60933         1.970980      0.288908      0.703132
O       1.86393      3.74979      2.31500         0.376647      0.484535      0.177967
O       1.89616      3.85898     14.83758         0.361418     -1.304571      0.003708
O       1.91506      0.02865      2.39031         0.463092     -0.188853      0.386588
O       1.83099     14.99310     14.77864        -0.021206      0.915105     -0.177633
O      13.05948      3.75753      2.46062         0.166436      0.436898     -0.211225
O      13.05373      3.70177     14.73204        -0.027002      0.907125      0.169672
O      13.11992      0.00666      2.47869        -0.309457     -0.528087      0.233918
O      13.20603     15.00881     14.61885        -0.468042     -0.455319      0.284880
O       1.69833      3.71604      6.58976        -0.066953      1.466970     -0.176237
O       1.94589      0.00164      6.50695        -0.076036     -0.022698      0.077617
O      13.22872      3.84989      6.52595        -0.064352     -1.032431      0.221617
O      13.04107     14.98811      6.42534         0.059113      1.437289      0.275598
O       1.94716      3.73879     10.64055        -1.023435      0.024843      0.166801
O       1.71708      0.01502     10.61394         0.568296      0.440099      0.134337
O      13.07757      3.78406     10.65884         0.123762     -0.672454     -0.051694
O      12.94569     15.00294     10.50170         0.323648     -0.050791      0.432703
O       1.78006      7.51664      2.43047         0.144189     -0.193438      0.120696
O       1.87191      7.56742     14.56132        -0.181754     -0.869754      0.389392
O      13.00983      7.52810      2.53695         0.488617     -0.870993     -0.145946
O      13.03019      7.51364     14.80542         0.453908      0.135693      0.060459
O       2.02806      7.47089      6.40294        -0.531607      0.219581     -0.030059
O      13.02811      7.54553      6.60672        -0.156788     -1.509711      0.190452
O       1.86992      7.47770     10.61587        -0.059395      0.409308      0.460759
O      13.01345      7.45974     10.63141         0.012003      0.508662      0.300668
O       1.72153     11.27431      2.43103        -0.250806     -0.762228     -0.336507
O       1.86894     11.26746     14.68993        -0.205561     -0.404604      0.079427
O      13.24337     11.28594      2.48433        -0.488495      0.437773     -0.236586
O      13.02998     11.22583     14.81358         0.110025      0.828523     -0.322034
O       1.73997     11.19525      6.52050         0.489063      0.374497      0.178397
O      13.19336     11.24528      6.56604        -0.246971      0.062218      0.003353
O       1.77729     11.26889     10.47158         0.047544     -0.824154      0.306569
O      13.15317     11.21210     10.50538        -0.196807      0.139428      0.656467
O       5.72263      3.72896      2.19415        -0.340293      0.340834      0.241686
O       5.56098      3.75998     14.65141         0.034937      0.188429      0.559152
O       5.36636     14.94067      2.43862         0.446697      0.864614     -0.109923
O       5.69299      0.04014     14.61846        -0.179556     -0.377173      0.133120
O       5.73119      3.73179      6.62533        -0.784013      0.253674     -0.399476
O       5.47188      0.02505      6.40742        -0.435858     -1.246209      0.347776
O       5.64170      3.71996     10.53377        -0.115680      0.704541      0.357233
O       5.56259     14.88305     10.65825         0.041004      2.204793      0.393980
O       5.53740      7.47995      2.39293         0.053385      0.692605      0.286806
O       5.71488      7.60516     14.71248         0.393820     -0.502536      0.277844
O       5.52227      7.48112      6.46943         0.317548      0.316604     -0.067856
O       5.54000      7.51198     10.60590         0.205138     -1.128827      0.551644
O       5.55525     11.19307      2.60034         0.439255      0.970284     -0.482505
O       5.54394     11.28664     14.76177         0.040735      0.308563      0.043372
O       5.70476     11.21472      6.64113        -0.150460      0.026298     -0.165792
O       5.62946     11.16859     10.60535        -0.204228      1.018882     -0.149462
O       9.27619      3.81614      2.64627         0.106445     -1.251049     -1.006002
O       9.42808      3.78167     14.68271        -0.035667      0.149585      0.261422
O       9.46903      0.01431      2.51788        -0.205665      0.187644      0.028062
O       9.24797      0.04332     14.80602        -0.268016     -0.175968     -0.209345
O       9.19346      3.76431      6.50304         0.234463     -0.098701     -0.115190
O       9.51595      0.06983      6.52068        -0.134658     -1.137378      0.033729
O       9.25013      3.80195     10.52104        -0.096060     -2.045333      0.453039
O       9.38003     14.96301     10.54184        -0.344397      1.388374      0.540341
O       9.43439      7.53786      2.40335        -0.314069      0.375412      0.012800
O       9.23511      7.53070     14.66622         0.238196     -0.200117      0.369184
O       9.34647      7.52803      6.53895        -0.090334     -0.018157      0.489223
O       9.48008      7.44811     10.63686        -0.425389      0.375817      0.411819
O       9.24602     11.29617      2.54937         0.332529      0.683289     -0.259152
O       9.40399     11.27233     14.81955         0.345395      0.837311     -0.231640
O       9.26752     11.31196      6.45140         0.134177      0.367659      0.285078
O       9.13851     11.22903     10.58955         1.058069      0.233648      0.459893
