  # total energy = -7876.96837225 
CRSYTAL
PRIMVEC
    15.2000000000000000    0.0000000000000000    0.0000000000000000
     0.0000000000000000   15.2000000000000000    0.0000000000000000
     0.0000000000000000    0.0000000000000000    17.000000000000000
PRESSURE
8.65094 8.84303 3.8707 -0.280495 0.189269 0.00064
PRIMCOORD
320 1
Pb       3.88596      3.63319      4.15834        -0.480090      0.283315      0.075928
Pb       3.66695      3.65832     16.84449        -0.072653      0.278780      0.250906
Pb       3.93624     15.01357      4.08549        -0.450958     -0.128179      0.088880
Pb       3.59672     15.16587     16.88170         0.294977     -0.327711      0.268608
Pb      15.19497      3.47557      4.16000         0.117784      0.803228      0.648796
Pb      15.10115      3.90884     16.98049         0.046267     -0.733508      0.659320
Pb      15.12322     14.95024      4.23380         0.119510      0.512351     -0.149995
Pb      15.03317      0.00418      0.11590         0.299426      0.240001     -0.006628
Pb       3.52276      3.97378      8.55549         1.150925     -0.274038     -0.204054
Pb       3.80495      0.00125      8.43239         0.286350     -0.294563      0.534674
Pb       0.03530      3.80059      8.47038        -0.268131     -0.344495     -0.632697
Pb       0.05604      0.07202      8.19653        -0.487851     -0.506129      1.088990
Pb       3.72767      3.80421     12.68621        -0.136408     -0.241211      1.075526
Pb       3.72951      0.07520     12.75774        -0.189182     -0.313112     -0.456385
Pb      15.01723      4.03010     12.73339         0.727638     -1.343699      0.331733
Pb      15.08022      0.07963     12.70982         0.134853     -0.055581     -0.030557
Pb       3.88229      7.46017      4.14189        -0.246407     -0.156287      0.173186
Pb       3.61565      7.50637     16.78839         0.429942     -0.006952      0.673203
Pb      15.18945      7.50951      4.30019         0.447773     -0.235691     -0.445468
Pb      14.95230      7.51562      0.10494         0.867953      0.212639      0.547006
Pb       3.82347      7.55991      8.56355        -0.329040      0.071718     -0.213330
Pb       0.11644      7.66291      8.47470        -0.150418     -0.125215     -0.559773
Pb       3.78260      7.73543     12.81926        -0.359497     -0.066781      0.161400
Pb       0.00725      7.73951     12.81356         0.320941      0.305321      0.252674
Pb       4.04169     11.21190      4.13593        -0.625755      0.394896     -0.219409
Pb       3.69776     11.39652     16.84642         0.254520     -0.334469      0.652099
Pb       0.15316     11.22148      4.19448        -0.260226      1.039071     -0.025652
Pb      15.04065     11.35817      0.01220         0.029653     -0.077307      0.862812
Pb       3.81450     11.41625      8.50048         0.182707     -0.087590     -0.171912
Pb       0.22232     11.42831      8.33740        -0.638475      0.351941      0.057195
Pb       3.87263     11.59075     12.68068        -1.096244     -0.782068      0.620978
Pb       0.05644     11.52685     12.82969        -0.447176     -0.331931     -0.181665
Pb       7.58885      3.82671      4.38817        -0.292035     -0.567217      0.028349
Pb       7.54198      3.75636     16.88397         0.477627     -0.285256     -0.241840
Pb       7.59733     15.12243      4.22433         0.140335     -0.215629      0.308111
Pb       7.55390      0.00249     16.84078        -0.147144     -0.120166      0.843055
Pb       7.30096      3.72170      8.77187         0.733820      0.389383     -0.643179
Pb       7.58085      0.05165      8.65484         0.163692     -0.502682     -0.697388
Pb       7.66905      3.83589     12.73191        -0.199848     -0.274627      0.022595
Pb       7.48119     14.99471     12.76131         0.191606      0.641996      0.079475
Pb       7.54234      7.53012      4.05444        -0.219278      0.501295      0.804811
Pb       7.77290      7.55681      0.03490        -0.429608      0.290031     -0.378263
Pb       7.48230      7.53576      8.55769         0.637567      0.183180      0.330103
Pb       7.55339      7.64523     12.67989         0.201134      0.010384      0.120538
Pb       7.64498     11.47064      4.31527        -0.025267     -0.312554     -0.448610
Pb       7.42659     11.35871     16.94676         0.770592     -0.473182      0.006438
Pb       7.69866     11.33874      8.66761        -0.087839     -0.011659     -0.860246
Pb       7.67884     11.53380     12.77288         0.135837     -0.546779      0.532670
Pb      11.23175      3.78966      4.43228         0.404460     -0.120555     -0.285686
Pb      11.26057      3.77281     16.94100         0.162937      0.282871      0.106874
Pb      11.30017     15.16177      4.26827        -0.252455     -0.288283      0.194134
Pb      11.31044      0.16789      0.09393        -0.085601     -0.726238     -0.047207
Pb      11.37080      3.85216      8.50191        -0.085972     -0.237808      0.361217
Pb      11.53363     15.18916      8.47924        -0.562199     -0.280529     -0.298069
Pb      11.39306      3.83629     12.61318        -0.081664     -0.640003      0.563557
Pb      11.41346     15.19966     12.59327         0.240913      0.159502      0.470111
Pb      11.26798      7.43229      4.32010         0.040473      0.543108     -0.017943
Pb      11.46347      7.65832      0.03730        -0.612004     -0.371155      0.048371
Pb      11.44652      7.60727      8.59802        -0.138564      0.329533     -0.423528
Pb      11.55991      7.78498     12.81456        -0.406820     -0.003468     -0.194162
Pb      11.33852     11.41747      4.28206         0.025726     -0.276204     -0.221835
Pb      11.35925     11.33743      0.05349        -0.179594      0.216652     -0.093639
Pb      11.49065     11.32785      8.32565        -0.576499      0.116321      0.628846
Pb      11.46434     11.46809     12.60450         0.117676     -0.024958      1.550017
Ti       1.92051      1.69368      2.27873        -0.938495      0.924958      0.068085
Ti       1.70788      1.81364     14.93245        -0.126077      0.476762      0.420572
Ti       1.88314     13.21051      2.16558         0.168784     -0.918486      0.276167
Ti       1.69209     13.25991     14.97293         1.084261      0.599152      0.365824
Ti      13.20822      1.84441      2.33910         0.920907      0.117379     -0.338954
Ti      13.22897      1.88240     15.00920         0.243486      0.342308     -0.655661
Ti      13.21230     13.24650      2.26515         0.699907     -0.557068      1.202198
Ti      13.22381     13.37497     15.06963        -1.660235     -1.400312     -0.754325
Ti       2.02839      1.84300      6.36781        -1.318091      1.522037     -0.854643
Ti       1.95716     13.38580      6.33604        -0.016994     -1.994449     -0.987814
Ti      13.22549      1.90544      6.49732         1.575466     -0.636343     -0.581634
Ti      13.22591     13.23047      6.38528         0.008366      0.891594      0.574569
Ti       1.85813      1.86416     10.67907        -0.083427     -0.776455      0.377621
Ti       1.75180     13.32597     10.72409         1.932268      1.002860     -0.349694
Ti      13.32682      1.94725     10.70251         0.356881     -1.301653     -0.783828
Ti      13.27798     13.25640     10.64980         1.131109      1.143378     -0.793069
Ti       1.92505      5.51591      2.24668        -0.881715      0.859624     -0.121232
Ti       1.78909      5.61920     15.01973         1.379551      0.434088     -0.924369
Ti      13.27310      5.61454      2.36009         1.244866      0.409064     -1.078418
Ti      13.27860      5.68002     14.97632        -1.253645     -0.398222      0.725914
Ti       1.94456      5.65665      6.34224         0.123600      0.537084      0.649322
Ti      13.32361      5.68651      6.49461         0.166105      0.525512     -0.608806
Ti       1.90021      5.70270     10.87125        -0.007213      0.675243     -0.460271
Ti      13.33077      5.74805     10.74165        -0.366498      0.318229     -0.587950
Ti       1.88840      9.35724      2.17653        -0.047002      0.236214     -0.233413
Ti       1.77875      9.48722     15.12509         0.684891     -0.464667     -0.935499
Ti      13.25758      9.39748      2.53324        -0.375655      0.839219     -1.119461
Ti      13.25463      9.48002     15.10048         0.241177      0.832946     -1.797554
Ti       2.01099      9.50625      6.37331        -0.327959     -0.386729      0.714241
Ti      13.37288      9.47962      6.41726        -1.200835     -0.543120      0.841779
Ti       1.91034      9.56066     10.80181         0.918585      0.574570     -0.278523
Ti      13.43109      9.52193     10.71767        -1.558205      0.472514     -1.215724
Ti       5.73570      1.78006      2.14537        -0.323307     -0.516668     -1.190468
Ti       5.63839      1.81202     15.01732         0.302035      0.121905      0.390617
Ti       5.74943     13.16453      2.14512        -0.237272     -0.346296      0.389650
Ti       5.64165     13.18161     14.97815        -0.029390      0.733426     -0.601169
Ti       5.67691      1.89249      6.52727         1.424280     -0.445281      0.118904
Ti       5.69288     13.22264      6.54257         1.125690      0.286912      0.493159
Ti       5.66285      1.93007     10.75316        -0.294712     -1.651075      0.362103
Ti       5.63019     13.27536     10.73075        -0.496009      1.296247     -1.073404
Ti       5.72777      5.50934      2.05180        -1.960664      1.173346      0.003301
Ti       5.70746      5.64297     15.05371        -0.190233     -0.338547     -1.135796
Ti       5.73571      5.67725      6.55097        -0.658576     -1.003704      1.041205
Ti       5.65004      5.70441     10.97167         0.738448      0.721545     -0.394895
Ti       5.58581      9.29444      2.02673         1.646170      0.912604      0.329216
Ti       5.64895      9.35497     14.88557         0.373818      0.723771      0.780830
Ti       5.72213      9.41447      6.52306         0.591941      0.553178      0.267947
Ti       5.69360      9.56313     10.80540         0.144158     -1.065383     -0.023408
Ti       9.42365      1.89516      2.31782         0.735647     -1.428897     -1.020761
Ti       9.52620      1.84332     14.87133        -0.653698      0.229748      0.674173
Ti       9.48823     13.21930      2.16263        -0.998015      0.438149     -0.482904
Ti       9.45718     13.28761     15.16125         0.646500     -0.642708     -0.868657
Ti       9.46351      1.90996      6.58315         0.213024     -1.030252      1.205024
Ti       9.36719     13.26572      6.60150         1.328740      0.673517     -0.285411
Ti       9.45727      1.82692     10.73048         0.572500      2.028090     -0.870313
Ti       9.52636     13.25194     10.72673        -0.685683      1.001934     -1.360772
Ti       9.45228      5.57983      2.23128         0.649030      1.166053     -1.382352
Ti       9.54589      5.71902     14.87991        -0.209308     -0.118735      1.586291
Ti       9.48833      5.69624      6.65275        -0.009259      0.473521      0.232401
Ti       9.60841      5.73466     10.79827        -1.174548      0.124983     -1.065073
Ti       9.42999      9.41899      2.30844        -0.445120      0.647972     -0.173016
Ti       9.43981      9.46043     14.90286         0.004791      1.052665      0.112949
Ti       9.49182      9.42432      6.47348         0.259158      0.218741      0.857704
Ti       9.56892      9.55692     10.80306         0.101943     -0.937085      0.321562
O       1.80940      1.82512      0.50345        -0.036395     -0.466631     -0.320492
O       1.76479      1.85321     13.18370         0.175280      0.085187     -0.203062
O       1.79190     13.35003      0.39744         0.349321     -0.115591     -0.667589
O       1.72764     13.38206     13.20038         0.315355     -0.280985      0.132452
O      13.23501      1.72610      0.53528        -0.062240      0.538963     -0.070383
O      13.23283      1.86458     13.22791         0.012512     -0.114635     -0.539004
O      13.10168     13.25309      0.52124         0.524690     -0.148343     -0.876345
O      13.26551     13.23635     13.25737        -0.162975      0.367015      0.432769
O       2.02450      1.85504      4.56812        -0.014911     -0.105934      0.780811
O       2.05809     13.22452      4.53171        -0.257645      0.031793      1.208232
O      13.39736      1.88726      4.69988        -0.998519      0.062170      0.059556
O      13.27646     13.34596      4.62821        -0.474510     -0.244952     -0.468466
O       1.86167      1.73290      8.87061         0.143456      0.781304      0.365466
O       1.74953     13.40377      8.96434         0.309798     -0.476824     -1.430413
O      13.47960      1.83199      8.91441         0.041573      0.277480     -0.253619
O      13.35585     13.32135      8.87064        -0.108468     -0.181587      0.293867
O       1.84008      5.62514      0.44398         0.340403     -0.282734     -0.610926
O       1.90243      5.48254     13.20109        -0.731136      0.608284      0.135973
O      13.35377      5.75428      0.49147        -0.485299     -0.443889      0.053771
O      13.19101      5.70196     13.22697         0.425179     -0.029495     -1.438994
O       2.08486      5.63060      4.61804        -0.671242     -0.036994     -0.402941
O      13.34103      5.67951      4.66544        -0.465879     -0.072613      0.702960
O       1.93310      5.82952      9.04722        -0.060571     -0.517298      0.451883
O      13.35027      5.78195      8.97961         0.361303     -0.162071     -0.254477
O       1.92388      9.26740      0.35202        -0.102358      0.610197      0.530617
O       1.81455      9.49504     13.33219        -0.607281      0.056713     -0.475215
O      13.37409      9.51100      0.71670        -0.530604     -0.445638     -1.108098
O      13.37312      9.47325     13.26401        -0.023985      0.195537      0.603296
O       1.92756      9.58773      4.63073         0.511059     -0.363560     -0.576426
O      13.25343      9.41502      4.64401         0.019506     -0.100115     -0.091702
O       1.99624      9.52481      9.00435        -0.398370      0.140394      0.120935
O      13.37269      9.41101      8.89631         0.325385      0.561603      1.055812
O       5.75379      1.71793      0.31942        -0.303625      0.520138      1.195577
O       5.64305      1.80192     13.28570         0.043430     -0.001488     -1.247704
O       5.85246     13.20309      0.42077        -0.319642     -0.095823     -1.399587
O       5.58751     13.23601     13.11044         0.671209      0.363747      0.586121
O       5.82737      2.00121      4.75518        -0.321723     -0.018243     -0.256069
O       5.89783     13.04645      4.77164        -0.524393      0.364075     -0.924426
O       5.61561      1.67579      8.97945         0.252616      1.008046     -0.267096
O       5.65518     13.35191      8.91626         0.114804     -0.267717      0.512046
O       5.67879      5.67821      0.29325         0.008298     -0.442539      0.210830
O       5.77879      5.67178     13.23557        -0.148164     -0.490667     -0.757154
O       5.74874      5.66952      4.84053         0.211042     -0.351307     -1.847988
O       5.63724      5.76019      9.18248         0.050219     -0.254893     -0.453423
O       5.41552      9.31955      0.29950         0.746175      0.081728     -0.903675
O       5.72394      9.59718     13.12202         0.222867     -0.513506     -0.270935
O       5.77450      9.34883      4.77105        -0.198890      0.278511     -0.442707
O       5.54631      9.40771      9.03696         0.387973      0.272849     -0.440791
O       9.52085      1.98840      0.51914        -0.018193     -0.233938      0.402700
O       9.57165      1.80553     13.12869        -0.126934     -0.252966     -0.880272
O       9.40096     13.11192      0.36861        -0.112322      0.364232      0.203297
O       9.43982     13.36865     13.35716         0.083155      0.107688     -1.064986
O       9.40627      1.82894      4.81693         0.475485      0.326550     -1.423038
O       9.33042     13.35682      4.78660         0.213963     -0.451061     -0.310615
O       9.43745      1.98351      8.93990         0.158575      0.312054     -0.063276
O       9.47268     13.19221      8.94707        -0.049282     -0.152867      0.325600
O       9.47239      5.56926      0.40297        -0.016135      0.205773      1.460029
O       9.74851      5.76117     13.15083        -0.746388     -0.048784     -0.642536
O       9.53211      5.71138      4.83452        -0.059933     -0.004565     -0.884901
O       9.66111      5.64305      8.98368        -0.431444     -0.424655      0.303045
O       9.37540      9.30428      0.56623         0.825273      0.246034     -1.499011
O       9.45463      9.47635     13.13002         0.152351     -0.182162     -0.443269
O       9.53826      9.28860      4.73376        -0.257397      0.202850     -1.416498
O       9.61437      9.72761      9.08419        -0.138444     -0.126360     -1.525464
O       3.77125      1.73737      2.52478         1.982019     -0.038178      0.065248
O       3.58685      1.79787     15.28975         1.726654     -0.145013      0.129521
O       3.83494     13.18153      2.39801         0.496060      0.174027      0.537067
O       3.79577     13.21581     15.37929        -1.000099      0.632013     -0.336490
O      15.17560      1.69851      2.70540         0.207980      0.279233     -0.487751
O      15.05554      1.71330     15.41797         0.674483      0.414135      0.071325
O       0.00739     13.08537      2.44552        -0.650228      0.855761      0.562110
O      15.04795     13.13453     15.36256         0.665699      0.341510      0.103460
O       3.86337      1.81473      6.80176        -0.450134      0.336310      0.131174
O       3.83315     13.23001      6.70355        -0.419875      0.480541      0.490192
O       0.05919      1.85274      6.68958         0.176992      0.460120      0.127986
O       0.05673     13.19971      6.58615        -0.092998      0.405010      0.333944
O       3.77730      1.88578     11.15501        -0.310122     -0.284150     -0.070941
O       3.73928     13.38065     10.97364         0.991658      0.148876      0.562906
O       0.05116      1.88142     11.17582        -0.919067      0.317494     -0.387580
O      15.19520     13.35954     11.08336        -2.175663     -0.294749      0.497412
O       3.80782      5.61103      2.66417         1.244880     -0.085315     -0.720878
O       3.74018      5.57245     15.27665        -0.372462     -0.123753      0.231496
O       0.01545      5.67004      2.41500         0.642020     -0.754992      1.010802
O      15.12696      5.62005     15.31503         0.414867      0.180300      0.129134
O       3.79130      5.69574      6.85323         0.092370     -0.045297      0.498036
O       0.03635      5.75384      6.72055         0.466667     -0.582629      0.570383
O       3.77809      5.74273     11.26029        -0.700034      0.161603     -0.144597
O       0.02903      5.79191     11.16056        -0.850064     -0.026163      0.053569
O       3.82500      9.27994      2.56375        -0.854476      0.646969      0.351372
O       3.78053      9.47407     15.17979        -0.474758     -0.338332      0.368865
O      15.19301      9.48800      2.70664         1.051726     -0.263846     -0.222808
O      15.12647      9.47110     15.50353        -0.107448      0.284908     -0.130267
O       3.85090      9.51310      6.76604         0.046682     -0.042508      0.297502
O       0.02497      9.58676      6.63168         0.733539      0.105160      0.553272
O       3.80328      9.51047     11.25293        -0.425134     -0.045827     -0.214759
O       0.01470      9.63227     11.20054         0.289458     -0.346315     -0.209517
O       7.61056      1.85911      2.67255        -1.142877      0.308918     -0.318664
O       7.66017      1.90228     15.33882        -0.682605     -0.291035     -0.293685
O       7.64608     13.27078      2.62033        -0.636346     -0.412567      0.164091
O       7.50518     13.19001     15.28927         0.285817      0.512815      0.170951
O       7.67672      2.00892      6.95924        -1.397756      0.121354      0.178935
O       7.59783     13.37509      6.98869        -0.762987     -0.584084      0.271624
O       7.54058      2.02548     11.02340        -0.130633      0.124354      0.309667
O       7.61466     13.26449     11.11893        -0.376112     -0.451421      0.001501
O       7.48573      5.51235      2.61296         1.831231      0.080328     -0.128022
O       7.58025      5.67650     15.34463         1.499396     -0.275793     -0.277258
O       7.62579      5.60732      7.03561         0.090418     -0.036189     -0.012710
O       7.67518      5.71487     11.14477        -0.401917     -0.417939      0.174515
O       7.51616      9.33535      2.38038         0.162457      0.053645      0.805514
O       7.59207      9.26880     15.28601        -0.938242      0.384302      0.223456
O       7.63440      9.45009      6.82367        -0.690478     -0.194604      0.824209
O       7.65524      9.52662     10.98347        -1.017293      0.266858      0.377051
O      11.41064      1.79062      2.70309        -1.256309      0.388384      0.184602
O      11.37520      1.84316     15.40299        -0.456114      0.213435      0.155178
O      11.31448     13.16893      2.59267         0.515567      0.682264      0.461222
O      11.31106     13.23611     15.53770         0.460543     -0.162144     -0.455587
O      11.45021      1.92190      6.98395        -0.479687     -0.198007     -0.385169
O      11.30942     13.24360      6.86322         1.407880      0.240584     -0.234422
O      11.47451      1.93808     10.88778        -1.154100     -0.391049      0.576425
O      11.39420     13.34543     11.06734        -0.028285      0.091142     -0.010568
O      11.42537      5.68679      2.54905        -1.617204     -0.050702      0.359854
O      11.42442      5.70671     15.44803        -0.652797     -0.229819     -0.173989
O      11.44740      5.82944      6.95899         0.676030     -0.406272     -0.522135
O      11.43873      5.64754     11.11556         0.898563      0.152334     -0.183190
O      11.31684      9.38676      2.60145         1.006519     -0.136200      0.443418
O      11.38230      9.43529     15.31007        -0.605148     -0.153595      0.487529
O      11.39144      9.44966      6.85277         0.775627     -0.109452     -0.060863
O      11.49428      9.61509     11.23907         0.042491     -0.366579     -0.553409
O       1.96856      3.65405      2.58583        -0.289650      0.290155     -0.119486
O       1.82705      3.72848     15.35764        -0.683732     -0.201038      0.187252
O       1.96178     15.04912      2.66251        -0.305407      0.215453     -0.251097
O       1.69043     15.13026     15.33864         0.560226     -0.267809      0.123929
O      13.29613      3.75870      2.64049         0.138721     -0.631387     -0.091311
O      13.37519      3.73809     15.23446        -0.576031      0.690740      0.584112
O      13.29246     15.13658      2.61892        -0.118793     -0.647196      0.187009
O      13.12989     15.17677     15.36058         0.359088     -0.369817      0.239046
O       2.06025      3.74644      6.78577        -0.889808      0.505120      0.197166
O       2.00258      0.04130      6.73193        -0.149933     -1.716737     -0.131886
O      13.35594      3.77268      6.87333        -0.059291      0.960698      0.074258
O      13.22818     15.14915      6.70047         0.222562      0.377833      0.423827
O       1.84914      3.79984     10.95350         0.331887      0.402597      0.057084
O       1.90606      0.00632     11.08568        -0.054383      0.679973      0.334752
O      13.32846      3.80654     10.91530         0.504220      1.143785      0.694622
O      13.25655      0.01815     11.06372         0.251618     -0.491511      0.198859
O       1.92215      7.51699      2.59737        -0.189897     -0.092465      0.164450
O       1.76322      7.56984     15.25261         0.286983     -1.127171     -0.011322
O      13.54091      7.52174      2.64424        -1.256860      0.199150      0.171874
O      13.28773      7.55681     15.23951         0.091587      0.319941      0.869052
O       1.98338      7.61429      6.80836        -0.434649      0.106493     -0.185582
O      13.43449      7.62388      6.87628        -0.196311     -0.296831     -0.356832
O       1.86690      7.74942     11.18156        -0.092971     -1.690863      0.150548
O      13.21339      7.66317     11.06754         0.631627     -0.497648      0.304896
O       1.96738     11.28856      2.38747         0.165280     -0.467889      0.339343
O       1.88625     11.40363     15.29893        -0.471904     -0.166931      0.395870
O      13.26220     11.38434      2.81511        -0.393640     -0.468064     -0.350148
O      13.17383     11.32635     15.51230         0.308788      0.435526     -0.128307
O       2.03584     11.41468      6.89323        -0.394388      0.038942     -0.327927
O      13.18779     11.42019      6.72363         0.706219     -1.327808     -0.106959
O       1.99014     11.52382     11.11430        -0.611847     -1.765034      0.167154
O      13.33436     11.44444     11.06048        -0.061807     -0.241706      0.066443
O       5.63208      3.64173      2.42925         0.073118      0.452393      0.101956
O       5.75067      3.69308     15.27890        -0.670052     -0.017358      0.479833
O       5.72351     15.05172      2.48752         0.132222      1.335822      0.480588
O       5.73123     15.11379     15.31583        -0.339111      0.076476     -0.150112
O       5.68589      3.81682      6.99474        -0.181257     -0.823092      0.241841
O       5.76404     15.17110      6.74583        -0.165361      0.481549      0.180587
O       5.53661      3.78618     11.11873         0.805947      0.149176     -0.068742
O       5.82792     15.16061     11.06377        -0.567445      0.595157      0.433990
O       5.76299      7.46843      2.52544        -0.529494     -1.029853     -0.117420
O       5.63591      7.46514     15.12913        -0.340507      1.779057      0.350769
O       5.69494      7.48259      6.98440         0.194710      1.654919      0.050376
O       5.71152      7.60388     11.19779        -0.127069      0.469461      0.240767
O       5.75134     11.26428      2.43186        -0.144988     -0.359886      0.422514
O       5.70299     11.32405     15.27162        -0.120211     -0.495436      0.268327
O       5.79621     11.36894      6.90550        -0.198425     -0.766386      0.249834
O       5.52057     11.40150     11.05737         1.016424      0.465600     -0.271310
O       9.51314      3.74466      2.55733         0.281912      0.827717      1.110707
O       9.54142      3.74783     15.20242         0.045443      0.890155      0.100786
O       9.43108     15.17025      2.63891         0.615696     -0.041398     -0.225983
O       9.45038     15.18465     15.45957         0.306530      0.382760     -0.362215
O       9.76858      3.83410      6.64107        -0.220758     -0.380015      0.638412
O       9.57096     15.17446      6.91749        -0.110979      0.904460      0.197172
O       9.54157      3.71400     11.20563        -0.135214      1.504999     -0.023159
O       9.32511      0.05094     10.83471         0.578963     -2.061006      1.070091
O       9.46831      7.50335      2.59952        -0.180997     -1.431437      0.091718
O       9.49554      7.60310     15.36276         0.456282     -1.446292      0.011341
O       9.51315      7.58059      7.03462        -0.199389      0.026964     -0.018326
O       9.60975      7.64671     10.86265         0.033980     -0.614220      0.802327
O       9.47574     11.37428      2.48350        -0.118683     -0.936496      0.872612
O       9.31737     11.33890     15.17134         0.437958     -0.502164      0.762081
O       9.51698     11.35627      6.77080        -0.507239     -0.346379      0.237546
O       9.53922     11.46413     11.13871        -0.183166     -0.304967      0.552801
