  # total energy = -7881.92816663 
CRSYTAL
PRIMVEC
    15.3600000000000000    0.0000000000000000    0.0000000000000000
     0.0000000000000000   15.3600000000000000    0.0000000000000000
     0.0000000000000000    0.0000000000000000    17.440000000000000
PRESSURE
0.156923 0.746206 -0.12916 0.001267 -0.235686 0.022909
PRIMCOORD
320 1
Pb       3.92811      3.80785      4.40143        -0.419528      0.153418     -0.840790
Pb       3.90163      3.81180      0.02680         0.091147     -0.023660     -0.297893
Pb       3.76798      0.02705      4.34302         0.338910     -0.101255     -0.399137
Pb       3.76366     15.29248     17.35458        -0.287165      0.268759     -0.269711
Pb       0.08375      3.78178      4.37199        -0.576043      0.049971     -0.784049
Pb       0.07014      3.89705      0.01017        -0.481324     -0.152205     -0.242927
Pb       0.10953      0.03710      4.36526        -0.613717     -0.038804     -0.520392
Pb      15.23534      0.05148     17.37597         0.123208     -0.267267     -0.267417
Pb       3.75049      3.78340      8.71439        -0.132509      0.340794     -0.481230
Pb       3.79049     15.32687      8.63216         0.127600     -0.082485     -0.324541
Pb      15.10576      3.96517      8.64048         0.312098      0.269668      0.066235
Pb      15.21449     15.30280      8.73711         0.459581     -0.195258     -0.127451
Pb       3.89531      3.63666     13.08173        -0.461494      0.716757     -0.511043
Pb       3.77043      0.01267     12.93317        -0.381260     -0.430659      0.045968
Pb       0.03137      3.78363     13.02976         0.176962     -0.128411      0.157429
Pb      15.29078     15.22588     13.06987         0.105804      0.144066     -0.434972
Pb       3.84017      7.67229      4.32259         0.083745      0.099858      0.031118
Pb       3.81267      7.61589      0.01656         0.159751      0.213541     -0.485097
Pb       0.14750      7.80142      4.31048        -0.337687     -0.422573     -0.188162
Pb      15.30946      7.70080      0.04330        -0.566260     -0.011117     -0.440431
Pb       3.77994      7.71480      8.62492         0.142014      0.024199     -0.074143
Pb      15.31011      7.62427      8.63959        -0.186369     -0.054857     -0.066979
Pb       3.88298      7.55746     13.04319        -0.433550      0.433589     -0.283112
Pb      15.32985      7.64895     13.09457         0.092089      0.283322     -0.199949
Pb       3.81159     11.56423      4.27272         0.018427     -0.337742      0.228184
Pb       3.94794     11.61179     17.41860        -0.760263     -0.618963     -0.319516
Pb       0.10820     11.55552      4.32749        -0.772989     -0.293009      0.113080
Pb      15.25867     11.51662     17.36108        -0.282778      0.037750     -0.345385
Pb       3.87090     11.49516      8.64392        -0.042453     -0.385667     -0.003938
Pb      15.35354     11.46855      8.72869        -0.483769     -0.218540     -0.460761
Pb       3.92717     11.40154     13.08009        -0.545378     -0.126867     -0.299911
Pb       0.19240     11.52108     13.02682        -1.166948     -0.251514     -0.011019
Pb       7.68242      3.78324      4.25116         0.082898      0.252951     -0.191663
Pb       7.70074      3.83970      0.04370        -0.093758     -0.162274     -0.249595
Pb       7.67138     15.34095      4.42367        -0.176397     -0.290509     -0.466035
Pb       7.51473      0.04098     17.32556         0.436629      0.043800      0.386984
Pb       7.52084      3.90504      8.73607         0.359759     -0.489675     -0.440713
Pb       7.66579     15.33589      8.78640        -0.081607     -0.339132     -0.591230
Pb       7.87074      3.90865     13.02457        -0.397660     -0.196423     -0.037480
Pb       7.69566      0.10696     12.98608         0.310917     -0.168033     -0.247210
Pb       7.73554      7.55777      4.33206        -0.092938      0.108569      0.020709
Pb       7.58434      7.76021      0.01642        -0.035570      0.236084     -0.568913
Pb       7.73385      7.61833      8.71941        -0.190736      0.482149     -0.780970
Pb       7.69801      7.72852     13.08268        -0.383304     -0.099356     -0.135505
Pb       7.64142     11.45931      4.35316        -0.012806      0.103438     -0.522893
Pb       7.67947     11.59843     17.32168         0.235005     -0.672190     -0.282391
Pb       7.62793     11.59810      8.63687         0.486793     -0.277483     -0.234749
Pb       7.79199     11.56879     12.94662        -0.386351     -0.529990      0.641448
Pb      11.45524      3.76053      4.30251         0.495410     -0.179837     -0.144727
Pb      11.70509      3.90256      0.15770        -0.546483     -0.350081     -1.086033
Pb      11.61914     15.28852      4.38250         0.063924     -0.237710     -0.842839
Pb      11.23941     15.25530      0.04064         0.827882      0.103848     -0.125605
Pb      11.45446      3.86817      8.65377         0.274612      0.394147     -0.128795
Pb      11.47551      0.05266      8.76675        -0.082450     -0.628046     -0.692471
Pb      11.55533      3.72238     13.02077        -0.195050      0.557714      0.125046
Pb      11.49587     15.29708     13.09205        -0.095620     -0.119499     -0.286915
Pb      11.57346      7.53783      4.37339        -0.598692      0.151437     -0.204275
Pb      11.46493      7.71404     17.42417         0.389320      0.046884     -0.603825
Pb      11.60095      7.72253      8.67734        -0.439005     -0.275196      0.120211
Pb      11.34356      7.58232     13.15467         0.642391      0.248498     -0.701606
Pb      11.53738     11.43357      4.27243         0.045215      0.837566     -0.539736
Pb      11.39906     11.44301     17.36014         0.397973      0.097615     -0.082177
Pb      11.52397     11.41918      8.62916        -0.153474      0.354568      0.422008
Pb      11.56717     11.48873     13.04569         0.419904     -0.379817     -0.456641
Ti       1.90630      1.94065      2.22209        -0.033785     -0.216291      0.710497
Ti       1.91990      1.96197     15.34103        -1.130804     -0.826897      0.625934
Ti       1.86707     13.46104      2.26736         0.386330     -0.357202      2.384719
Ti       1.81602     13.40136     15.32487        -0.314959     -0.160949      1.830046
Ti      13.43862      1.84943      2.31081         0.138734      0.176374      1.150573
Ti      13.37774      1.92215     15.35324         0.459324     -0.545811      0.560408
Ti      13.50950     13.36756      2.30536        -1.588982      0.283869     -1.098987
Ti      13.29725     13.43768     15.39581         0.936696      0.005722     -0.202619
Ti       1.82687      1.88272      6.72271         0.189835      0.201960      1.241605
Ti       1.92681     13.40302      6.74240        -0.445201     -0.413872     -0.166392
Ti      13.41430      1.88433      6.64842        -0.659662      0.487142     -1.502034
Ti      13.42210     13.47453      6.63876        -0.125452     -1.741494     -0.636200
Ti       1.89711      1.90393     10.87881        -0.867417     -0.349626      0.389192
Ti       1.94415     13.39607     10.90796        -0.926103      0.162244      0.342629
Ti      13.43031      1.88709     11.02325         0.633720      0.200087      0.942965
Ti      13.36460     13.45795     10.97947         0.361005     -1.272509      0.714121
Ti       1.92908      5.75697      2.35548        -0.491271     -0.282634      2.440706
Ti       1.89306      5.73711     15.38317        -0.327103     -0.076162     -0.644114
Ti      13.39871      5.74922      2.28895         1.685225     -1.331022      0.228586
Ti      13.43664      5.70152     15.34015        -0.529724      0.658606      0.522593
Ti       1.89424      5.64914      6.51858        -0.478097      1.575186      0.838160
Ti      13.32515      5.79516      6.57858         0.447741      0.043992      0.441034
Ti       1.92439      5.70372     11.05164        -0.587934      0.093656     -0.210946
Ti      13.41613      5.75557     11.24336        -0.744419      0.257970     -2.564502
Ti       1.88902      9.62270      2.24951        -0.418098     -0.366138      2.269951
Ti       1.80511      9.49826     15.44956        -0.021658      1.440965     -0.414282
Ti      13.29147      9.45200      2.32210         1.378762      1.732482     -0.876983
Ti      13.36147      9.52178     15.32130         0.456615      1.027610     -0.090872
Ti       1.83626      9.54419      6.70489        -0.288730      0.227234      0.036844
Ti      13.30691      9.61909      6.48949         0.873842      0.486649      2.152903
Ti       1.76477      9.51925     10.99897         0.659939      0.154494      0.069118
Ti      13.34797      9.52560     11.04389        -0.593040      0.782841      1.969142
Ti       5.75292      1.87182      2.30621        -0.742453     -0.292057     -0.284002
Ti       5.71217      1.95195     15.32754         0.388568      0.216663      1.787049
Ti       5.71914     13.35793      2.25634         0.423127      0.478329      1.283169
Ti       5.70484     13.49301     15.26914        -0.453042     -0.709710      1.305343
Ti       5.74604      1.85416      6.66149        -0.409746      0.093107      1.353816
Ti       5.80509     13.36767      6.59772        -0.445224      0.587683      1.082481
Ti       5.74503      1.91337     10.98427         0.714334     -0.363409      0.071244
Ti       5.73485     13.43088     11.07567         0.159375     -0.496294      0.011865
Ti       5.75180      5.76173      2.28482         0.084481     -0.496129      0.572170
Ti       5.76733      5.76432     15.36959        -0.211140      0.225520      0.928030
Ti       5.72759      5.77761      6.63949         0.134800      0.501552      1.110143
Ti       5.65569      5.69019     10.95697         0.635072      0.560145      0.091983
Ti       5.69048      9.54310      2.31926         0.060808      0.719717      0.176610
Ti       5.60615      9.65243     15.37509         1.084775     -0.664447      0.187318
Ti       5.75969      9.60648      6.58632        -0.339189     -1.065532      1.845685
Ti       5.67597      9.59026     11.04136        -0.483349     -0.139793     -0.892183
Ti       9.56732      1.80817      2.37825         0.390040      0.082848     -0.657571
Ti       9.59315      1.90698     15.48796         0.203799      0.643186     -0.828656
Ti       9.50295     13.40247      2.30073         1.007299     -0.623554     -0.687521
Ti       9.48775     13.44552     15.30876         0.545158     -0.349795     -0.026898
Ti       9.51024      1.86282      6.69469         0.867891      0.406657     -0.331404
Ti       9.69321     13.39705      6.63344        -0.598707     -0.853174      1.167856
Ti       9.66544      1.90034     10.94109        -1.462358     -0.089162      0.065266
Ti       9.52831     13.40114     11.02080         1.614985     -0.151442     -1.006161
Ti       9.64300      5.73729      2.22892        -0.493615     -0.291907      0.509265
Ti       9.51645      5.70683     15.49065         0.878899     -0.772456      0.172340
Ti       9.58128      5.71261      6.64334        -0.152208      0.580894      0.361354
Ti       9.51818      5.76749     11.05112         1.504012      0.563596      0.182405
Ti       9.49293      9.54708      2.37665        -0.340743      0.283728     -1.418106
Ti       9.52572      9.45634     15.29955        -0.703525      1.399726      1.151434
Ti       9.52253      9.55614      6.54066         0.287572     -0.066371      0.173262
Ti       9.50451      9.52774     10.98750         1.144284      0.982222      0.661369
O       1.97388      1.92826      0.45571        -0.113394      0.053869      0.537667
O       1.92405      2.01151     13.58020         0.424628     -0.146394     -0.342101
O       1.77541     13.57478      0.61075         0.441268     -0.300369     -2.346402
O       1.86831     13.27230     13.59411         0.122173      0.552967     -0.686855
O      13.51736      1.78973      0.58518        -0.327585      0.514086     -1.150156
O      13.30025      1.91845     13.57654        -0.007854      0.110944      0.260146
O      13.35277     13.46411      0.48456         0.287955     -0.074914      0.795150
O      13.46016     13.39085     13.60413        -0.315174      0.417412      0.129542
O       1.88676      1.84506      4.98967         0.072583      0.354306     -1.301737
O       1.88846     13.21292      4.96993        -0.017925      0.756554     -0.088308
O      13.43174      1.91787      4.81059        -0.033846     -0.087653      1.669569
O      13.35618     13.33002      4.81666         0.050746      0.389457      0.948177
O       1.95159      1.86632      9.08440        -0.254384      0.070964      1.087481
O       1.87072     13.45345      9.12824         0.333576     -0.058671      0.142422
O      13.44868      1.83849      9.26483        -0.364365      0.048206     -0.257252
O      13.41235     13.51046      9.24172         0.012972      0.211945     -0.707523
O       1.87251      5.68272      0.65621         0.086079      0.166200     -1.757019
O       1.89682      5.70123     13.59373         0.238464      0.073598      0.560342
O      13.57572      5.77735      0.49936        -0.725891     -0.259543      0.186570
O      13.36068      5.68833     13.56029         0.307662     -0.094626     -0.138517
O       1.99627      5.66557      4.75135        -0.191626     -0.012112      0.065916
O      13.18206      5.81890      4.82599         0.585597     -0.383797      0.123115
O       1.88581      5.73593      9.30840         0.135926      0.042330     -0.536077
O      13.30203      5.82227      9.33465         0.586785     -0.355908      0.848570
O       1.81047      9.55714      0.56917         0.081483     -0.125011     -2.348118
O       1.79094      9.53802     13.67635         0.033741     -0.121823     -0.191960
O      13.29392      9.50186      0.51687         0.064465     -0.170582      0.548672
O      13.38547      9.67527     13.56006        -0.141199     -0.478685      0.485840
O       1.78042      9.63269      4.91259         0.151709     -0.151017      0.652346
O      13.40980      9.60776      4.74116        -0.243138     -0.203736     -0.381963
O       1.80265      9.61867      9.22559         0.052651     -0.489523      0.148741
O      13.22785      9.50084      9.33076         0.282041     -0.227092     -1.338076
O       5.73287      1.96288      0.54805        -0.010591     -0.352528     -0.347707
O       5.72532      1.75486     13.60854        -0.120456      0.552227     -1.262498
O       5.66889     13.33000      0.50946         0.320268      0.095829     -0.822504
O       5.74615     13.43037     13.54851        -0.360766      0.281765     -0.740155
O       5.81776      1.80620      4.92633        -0.466627      0.253668     -0.595994
O       5.78082     13.43831      4.89153        -0.153331     -0.170063     -1.532326
O       5.77809      1.93313      9.23685        -0.354876      0.079578     -0.526621
O       5.76104     13.30249      9.34064         0.235303      0.195488     -1.246018
O       5.67829      5.80939      0.54031        -0.173795     -0.048073     -0.199195
O       5.77165      5.69114     13.61247         0.080551      0.121327      0.077273
O       5.72791      5.90787      4.90666        -0.297410     -0.610623     -0.636785
O       5.72677      5.50975      9.14180        -0.137009      0.753047      1.199554
O       5.66151      9.47301      0.55166         0.160915      0.377883     -0.404947
O       5.63043      9.73746     13.61582        -0.041572     -0.735785     -0.670462
O       5.67452      9.69272      4.88794         0.012765     -0.369565     -1.679392
O       5.62601      9.60146      9.26126         0.383085      0.379967      0.652958
O       9.55456      1.77454      0.58127        -0.193653     -0.038772      0.813315
O       9.63206      1.78223     13.65922        -0.101594      0.559894      0.495636
O       9.50194     13.40176      0.44652        -0.054843      0.259583      0.737343
O       9.56734     13.56935     13.54546        -0.319736     -0.201798     -0.081806
O       9.55384      1.92578      4.89509        -0.265004     -0.195169      0.406905
O       9.79039     13.32922      4.90096        -0.317755      0.159853     -0.671426
O       9.59030      2.01921      9.16183         0.276161     -0.638707      0.618692
O       9.54689     13.38027      9.24243        -0.519487      0.141176     -0.106996
O       9.58477      5.58707      0.48518         0.241895      0.792988     -0.068199
O       9.47695      5.70822     13.69335        -0.287827     -0.018128     -0.441378
O       9.78265      5.82437      4.91171        -0.524007     -0.180330     -0.697016
O       9.51117      5.80479      9.31602        -0.220261     -0.079918     -1.248551
O       9.34530      9.45500      0.51528         0.720486      0.320595      1.087402
O       9.44510      9.54784     13.55234         0.311290     -0.237376      0.106043
O       9.52065      9.47778      4.73465         0.300376      0.433737      0.218871
O       9.47460      9.40948      9.23639        -0.159286      0.383324      0.236660
O       3.84882      1.97097      2.70991        -0.487240     -0.109521      0.447566
O       3.80157      1.95669     15.77355         0.683415      0.193299     -0.104360
O       3.82874     13.27869      2.64422        -0.417208      0.199684      0.077930
O       3.73670     13.30052     15.89034         0.728267      0.809777     -0.736516
O       0.00571      1.91504      2.75748         0.768460     -0.301420     -0.071071
O       0.05261      1.82862     15.67859        -0.876802      0.359581      0.192327
O       0.05475     13.57577      2.71806        -0.936907     -0.615822      0.279286
O      15.26411     13.54367     15.84393         0.596172     -0.892151     -0.423696
O       3.75397      1.98211      7.12027         0.901878     -0.151672     -0.394939
O       3.84310     13.38176      6.97366        -0.582389     -0.070278      0.522439
O      15.25332      1.80116      7.12593        -0.014865      0.433607     -0.253163
O      15.26506     13.47534      7.15650         0.063421      0.139689     -0.414060
O       3.79305      1.78246     11.42844         0.406511      0.082792     -0.356025
O       3.82761     13.53592     11.35658        -0.575800     -0.169514      0.146384
O      15.32965      1.97808     11.53815         0.381705     -0.185821     -0.911126
O       0.01199     13.46852     11.36687        -0.288695     -0.799841      0.102426
O       3.87092      5.67050      2.80999        -0.012871     -0.284232     -0.292340
O       3.77304      5.81129     15.84282         0.265273     -0.412827     -0.209899
O      15.31842      5.74323      2.77109         0.580257      0.175810     -0.030009
O      15.32127      5.77545     15.75657        -0.239172      0.275805      0.100847
O       3.69981      5.80855      7.02950         1.008058     -0.576051     -0.113779
O      15.24291      5.79514      7.01501        -0.241979     -0.124043     -0.149120
O       3.82311      5.68599     11.55314         0.594934      0.298428     -0.423368
O       0.06335      5.54134     11.41878        -1.007409      0.353623      0.356185
O       3.79657      9.71389      2.74278         0.155031     -0.125830     -0.184349
O       3.72023      9.65180     15.73202         0.368579     -0.344215      0.398844
O      15.33401      9.45045      2.72282        -0.085523     -0.313151     -0.269123
O      15.20408      9.60249     15.78180         0.715167     -0.173606      0.423465
O       3.77427      9.59595      7.11787        -0.672172     -0.025672     -0.303568
O      15.23009      9.54187      7.23414         0.086341     -0.003670     -0.896574
O       3.76368      9.46463     11.42872        -0.151138      0.287455      0.287669
O      15.22275      9.61996     11.49295         1.320637     -0.366764     -0.372218
O       7.57549      1.86813      2.81921         1.681415     -0.130394     -0.017910
O       7.68074      2.00494     15.81975        -0.684509     -0.348439     -0.097617
O       7.65804     13.43171      2.73377        -0.288759     -0.133647      0.001291
O       7.52302     13.49471     15.70365         1.030076     -0.216321      0.173302
O       7.61472      1.78189      7.06678         0.441086      0.224218      0.120351
O       7.64824     13.45271      6.96853         0.486352     -0.520566      0.486393
O       7.68380      1.95802     11.25980         0.282722      0.238411      0.617437
O       7.72057     13.35387     11.45733        -1.429322      0.012901     -0.061767
O       7.68681      5.77448      2.72843        -0.180884     -0.008593     -0.079055
O       7.63425      5.68189     15.98071        -0.674963      0.237249     -0.718310
O       7.63858      5.86941      6.83570         0.271482     -0.247963      0.789144
O       7.65294      5.67534     11.47380        -0.754604      0.282001     -0.291120
O       7.59924      9.66728      2.77164         0.446459     -1.139196     -0.047686
O       7.57842      9.49252     15.70221         0.614785      0.430090      0.258664
O       7.64688      9.55825      6.88429        -0.021898     -0.000213      0.390862
O       7.59025      9.60118     11.53666         0.359814      0.030229     -0.599699
O      11.47018      1.87374      2.71166        -0.619933     -0.238797     -0.094058
O      11.45649      1.97620     15.97350         0.859086     -0.366546     -0.491507
O      11.52086     13.42380      2.62205        -0.131973     -0.004846      0.318414
O      11.39441     13.43448     15.58010        -0.069846      0.588540      0.717137
O      11.49679      1.93452      7.07814        -0.545129     -0.280305      0.124069
O      11.50959     13.27387      7.17233         0.336831      0.871461     -0.400827
O      11.48979      1.85940     11.49894        -0.071060     -0.296751     -0.704516
O      11.48083     13.59523     11.24708         0.319541      0.021672      0.840617
O      11.55771      5.67491      2.68484        -1.074484      0.352605     -0.355201
O      11.44021      5.70245     15.75747         1.099457      0.318367      0.396099
O      11.46696      5.75297      7.02511        -0.135620     -0.303454      0.576990
O      11.48174      5.87662     11.44240        -0.231485     -0.348296      0.573240
O      11.44353      9.66073      2.60276        -0.232625     -0.512535      0.178810
O      11.50384      9.52133     15.79406        -1.883059     -0.006789      0.007700
O      11.40741      9.69470      7.09731         0.910720     -0.645495     -0.987426
O      11.46191      9.49277     11.58942        -0.506709     -0.134880     -0.391708
O       1.82842      3.77907      2.73520         0.603912      0.213123     -0.044748
O       1.68322      3.86925     15.77076         1.371096     -0.156169     -0.000526
O       1.97763     15.35524      2.82628         0.185372      0.353635     -0.352007
O       1.97456     15.31289     15.77439         0.166996      0.146471     -0.471932
O      13.38513      3.75482      2.65930         0.066907      0.905831      0.043708
O      13.50286      3.82749     15.79913        -0.313405     -0.145988      0.168336
O      13.50397     15.34833      2.70189        -0.444379     -0.570238      0.522035
O      13.52768      0.05634     15.72040        -1.325655     -0.148569     -0.138491
O       1.70512      3.87297      6.94583         0.290831     -0.834570      0.321964
O       1.87987      0.02164      6.99420         0.279036     -1.212928      0.284441
O      13.32339      3.84080      7.05927         0.426529     -0.037878     -0.100241
O      13.28016     15.32118      6.92678        -0.051710      0.309668      0.426075
O       2.03339      3.75135     11.23468         0.078140     -0.510462      0.475788
O       1.77822     15.27337     11.33142         0.712669      1.108779      0.165797
O      13.34176      3.83112     11.36637        -0.158122     -0.933310      0.429165
O      13.52856      0.00463     11.43067        -0.456684      0.108218      0.078612
O       2.12876      7.68166      2.75236        -1.009055     -0.430566     -0.307039
O       1.80779      7.65289     15.87868         0.197038     -0.262262      0.005531
O      13.40424      7.60308      2.59926        -0.480622      0.263726      0.475775
O      13.36853      7.67219     15.77402         0.024581     -0.976287     -0.141086
O       1.75478      7.63211      6.99702         0.460381      0.356185     -0.011916
O      13.24263      7.74196      6.93906         0.246774     -0.648303     -0.045340
O       1.76702      7.62053     11.45379         0.307609      0.239415      0.051020
O      13.47426      7.60465     11.52180         0.305613      0.374567      0.268860
O       1.67307     11.43570      2.69809         1.066744      1.553445     -0.482074
O       1.74255     11.45811     15.84102         0.128505      0.722194     -0.067381
O      13.50874     11.45134      2.55257        -0.001839      0.528595      0.420902
O      13.23194     11.55747     15.73271         0.546427     -0.409487      0.461312
O       1.70073     11.51219      7.10881         0.673663     -0.307060      0.055062
O      13.40259     11.44813      7.05341         0.125861      0.506838     -0.132414
O       1.84517     11.42313     11.35817         0.526220      0.795178     -0.085322
O      13.24067     11.44952     11.36216         0.322500      1.363182     -0.101116
O       5.83676      3.80267      2.54517        -0.246030      0.636937      1.015403
O       5.68832      3.85835     15.83767        -0.066057     -0.199381     -0.391739
O       5.70834     15.28043      2.62274        -0.172108      0.138184      0.288186
O       5.79047      0.06299     15.79389        -1.062852     -0.519615     -0.363201
O       5.80862      3.83569      7.05831        -0.374301     -0.194726     -0.499028
O       5.70909     15.27192      7.07724        -0.313180      0.886331      0.183882
O       5.68569      3.79739     11.37765        -0.087315     -0.206106      0.182827
O       5.87110     15.30534     11.29988        -0.273938      1.112963      0.470193
O       5.65481      7.67531      2.67077         0.181580     -0.271061      0.352311
O       5.73502      7.70230     15.74408        -0.507796     -0.773430     -0.023573
O       5.72304      7.71664      7.16536        -0.354250     -0.821178     -0.275714
O       5.70604      7.63319     11.19907         0.206951     -0.771566      0.698578
O       5.83573     11.45082      2.72690        -0.473124      0.975264     -0.090173
O       5.73294     11.52303     15.64883        -0.199522      0.737077      0.754925
O       5.71671     11.43245      7.04724         0.174269      1.225555      0.259232
O       5.60433     11.52995     11.42140         0.393969     -0.591150      0.282782
O       9.58046      3.87417      2.64560        -0.338840     -1.353806      0.563369
O       9.60621      3.85165     15.91677        -0.453813     -0.961820     -0.303371
O       9.53133     15.26102      2.82253         0.185722      1.101260     -0.269882
O       9.54376     15.34680     15.76098        -0.280303     -0.059753      0.430289
O       9.51072      3.80743      6.99542        -0.062588      0.188901      0.215738
O       9.57277     15.25704      7.05611         0.316632      1.177662      0.172443
O       9.70708      3.92112     11.37783        -0.394498     -1.778741      0.348102
O       9.45849     15.31488     11.27256         0.293305      1.731434      0.187765
O       9.57982      7.60426      2.67889         0.152260      0.516230     -0.094449
O       9.46019      7.62163     15.69288         0.436209      0.310413      0.366940
O       9.64329      7.71358      7.04582        -0.458445     -0.723881     -0.043899
O       9.61800      7.71843     11.46789        -1.225212     -0.997424      0.330845
O       9.52368     11.50039      2.56252         0.095754     -0.170372      0.552458
O       9.50367     11.50633     15.67327        -0.155003     -0.108316      0.187788
O       9.55964     11.44216      7.06520        -0.562236      0.541431     -0.138795
O       9.68751     11.50358     11.37415        -0.502361     -0.588260      0.250540
