  # total energy = -7882.48041351 
CRSYTAL
PRIMVEC
    15.3600000000000000    0.0000000000000000    0.0000000000000000
     0.0000000000000000   15.3600000000000000    0.0000000000000000
     0.0000000000000000    0.0000000000000000    17.440000000000000
PRESSURE
0.687843 0.49337 -2.94029 0.128479 0.316234 0.072524
PRIMCOORD
320 1
Pb       3.74083      3.84466      4.26224         0.001472      0.186654      0.193809
Pb       3.79628      3.84853     17.34720         0.016489      0.136983      0.133384
Pb       3.81959      0.02318      4.23481        -0.030069     -0.096759      0.639521
Pb       3.82470      0.07705      0.05336        -0.038982     -0.091209     -0.453719
Pb      15.28441      3.81628      4.34350         0.090677     -0.114969     -0.335264
Pb      15.30601      3.86808     17.41721        -0.133907      0.038841     -0.862524
Pb      15.24332     15.26215      4.28976         0.583295      0.453180      0.653487
Pb      15.29328     15.29754      0.03469         0.341139      0.358017     -0.476033
Pb       3.82091      3.78309      8.73585         0.357175      0.286193     -0.592157
Pb       3.83610     15.29923      8.76309         0.036246     -0.022332     -0.689436
Pb       0.04874      3.69454      8.68521        -0.074765      0.503316      0.304695
Pb       0.03425      0.02346      8.64731         0.019018     -0.645231     -0.078940
Pb       3.67495      3.87874     13.04713         0.216707     -0.534849      0.100191
Pb       3.81738     15.24401     13.16361        -0.111036      0.440677     -0.432181
Pb      15.28558      3.81733     13.03632         0.358626     -0.009822     -0.039842
Pb       0.02464      0.03891     13.01417         0.087795     -0.240602     -0.344262
Pb       3.82109      7.62826      4.27688         0.180745      0.053461     -0.319490
Pb       3.77098      7.69082     17.40131         0.454360      0.336302      0.147997
Pb      15.31042      7.60899      4.38046         0.158169     -0.068423     -0.347807
Pb      15.29005      7.72240     17.34768        -0.056864     -0.497187      0.213330
Pb       3.93112      7.57474      8.77951        -0.458041      0.453168     -0.407972
Pb       0.04212      7.62727      8.75218        -0.154574     -0.100904     -0.461814
Pb       3.77579      7.71428     13.03251        -0.349864      0.216093      0.182028
Pb       0.04780      7.66940     12.97455         0.229579      0.151390      0.155167
Pb       3.75807     11.48949      4.25881         0.112019     -0.076065      0.054462
Pb       3.88227     11.46026     17.43980         0.200906     -0.376962     -0.174243
Pb      15.31563     11.53126      4.30104         0.151652     -0.159068      0.284578
Pb      15.34961     11.48951     17.41115        -0.098780     -0.015402     -0.184358
Pb       3.73809     11.53776      8.66153         0.352463     -0.360736     -0.122588
Pb      15.34089     11.41711      8.64694        -0.407779      0.798234     -0.063026
Pb       3.78384     11.54782     13.08519        -0.005209     -0.175976      0.111869
Pb      15.26369     11.47048     13.15527         0.200723      0.117475     -0.813865
Pb       7.65870      3.81142      4.41507         0.187359      0.196460     -0.443697
Pb       7.63426      3.89542     17.30770         0.966159     -0.054118      0.196312
Pb       7.68575      0.09122      4.22236        -0.165231     -0.196051     -0.183978
Pb       7.73642     15.35542     17.43531         0.006417     -0.239926     -0.585616
Pb       7.71532      3.66452      8.77105        -0.302953      0.353690     -0.506165
Pb       7.62773     15.23040      8.63967        -0.113163      0.206693      0.090581
Pb       7.61591      3.76912     13.18607         0.085695     -0.269018     -0.771570
Pb       7.59194     15.27265     13.15992         0.683900     -0.005953     -0.231733
Pb       7.58885      7.67410      4.31541         0.475973     -0.323047      0.029823
Pb       7.77622      7.59515     17.40870        -0.678242      0.243652      0.122588
Pb       7.53842      7.69363      8.68477         0.319163     -0.063702     -0.374477
Pb       7.55540      7.61337     12.99742         0.340810      0.376180      0.018635
Pb       7.67581     11.51736      4.33745         0.078232      0.474181     -0.703773
Pb       7.74821     11.49338      0.06085         0.057538      0.092421     -0.293897
Pb       7.58096     11.40999      8.69638        -0.049259      0.297882     -0.197270
Pb       7.61167     11.40204     13.10871         0.121382      0.422250     -0.036281
Pb      11.45618      3.82853      4.40316         0.291856      0.184562     -0.460677
Pb      11.50750      3.81980     17.33813        -0.127836      0.274617     -0.303869
Pb      11.37573      0.05627      4.28293         0.421243     -0.384473     -0.482865
Pb      11.62927     15.35134     17.35119        -0.089061     -0.000940      0.250328
Pb      11.51265      3.79999      8.74395         0.009523      0.389548     -0.154782
Pb      11.48610     15.21144      8.63819         0.716191      0.065430      0.256634
Pb      11.50826      3.85088     13.07334         0.068733     -0.308200     -0.547657
Pb      11.54248     15.32135     12.97178        -0.110528     -0.004181     -0.175009
Pb      11.43641      7.78355      4.33012        -0.071973     -0.581663     -0.029877
Pb      11.54519      7.58632     17.40953         0.151147      0.402506     -0.358569
Pb      11.41524      7.59308      8.73238         0.217610     -0.218747     -0.472641
Pb      11.57058      7.73635     12.87243        -0.352711      0.085531      0.471194
Pb      11.47264     11.48855      4.45531         0.079086      0.599437     -0.721203
Pb      11.58441     11.53262      0.01837        -0.309675     -0.439307     -0.166996
Pb      11.47448     11.53155      8.74926         0.444072      0.054618     -0.780078
Pb      11.42370     11.45679     12.99833         0.449671      0.213276     -0.054119
Ti       1.95488      1.95437      2.27281        -0.991144     -0.219289     -0.427353
Ti       1.94982      1.90984     15.43642        -1.551389      0.065137     -1.079521
Ti       1.98182     13.47336      2.31482        -0.789506     -0.209254      1.377818
Ti       1.94617     13.42033     15.43619        -0.321774      0.625609     -0.992818
Ti      13.48308      1.88312      2.32156        -0.393791      0.620278     -0.299288
Ti      13.47916      1.90312     15.33781         0.746688      0.805150      0.122607
Ti      13.52498     13.39750      2.30075        -1.411356     -0.102759      0.326537
Ti      13.47864     13.43482     15.38708         0.174224     -0.440616     -1.564281
Ti       1.95912      1.92300      6.62485         0.118548     -0.372587     -1.060575
Ti       2.00660     13.43308      6.64088        -0.710060      0.387282     -0.294751
Ti      13.43932      2.02777      6.66239         0.032764     -1.507440     -1.075947
Ti      13.48448     13.53780      6.66999         0.436898     -1.574632     -0.683357
Ti       1.96965      1.93808     11.02768        -0.079220     -0.283744      0.769928
Ti       2.00916     13.48224     11.07361        -1.792438     -0.236532     -0.801408
Ti      13.47643      1.92706     10.97388        -0.111744      0.048200      0.404641
Ti      13.48373     13.47601     11.05153         0.665834     -0.016252     -1.454133
Ti       1.84214      5.79655      2.30156         0.785087     -0.467720     -0.442047
Ti       1.94804      5.76211     15.40391        -1.554727     -0.682060     -0.962723
Ti      13.43335      5.77221      2.24636        -0.465871     -1.454850     -0.658810
Ti      13.41540      5.80730     15.29661         0.375902     -0.884940      0.291543
Ti       1.90564      5.70524      6.66698         0.301713      0.430385     -1.035786
Ti      13.48666      5.72220      6.75399        -1.063905      0.480484     -0.646079
Ti       1.93728      5.76718     11.02567        -0.547471      0.021545      0.559247
Ti      13.45637      5.80220     11.06356         0.132269     -0.560248     -1.742488
Ti       1.85570      9.58797      2.34622         0.607771      0.052502     -0.559203
Ti       1.86036      9.58530     15.43743         1.173480     -0.682526     -2.348142
Ti      13.36915      9.54475      2.35044         0.624344      0.485582     -1.975791
Ti      13.41812      9.59883     15.37281        -0.567685      0.133719     -1.007672
Ti       1.82612      9.56004      6.64089         1.536523      0.228443     -0.435057
Ti      13.38511      9.56264      6.65363        -0.161142      1.364265      0.262040
Ti       1.87565      9.66273     11.01822        -0.324497      0.123634      0.259659
Ti      13.43698      9.64936     10.97740         0.033168      0.088063     -0.268070
Ti       5.73386      2.00268      2.29065         0.777854     -0.326920      0.441956
Ti       5.72878      1.94729     15.43149         0.747519     -0.289871      0.589450
Ti       5.72116     13.50166      2.22336         1.640483     -0.315029      0.558842
Ti       5.77417     13.41774     15.58305         0.781758     -0.150423     -1.043521
Ti       5.76987      1.93271      6.66060         0.163787     -0.621416      0.227295
Ti       5.81748     13.40925      6.58059        -0.760388      0.520353     -0.156493
Ti       5.77392      1.83168     11.03848        -0.175931      0.667882      0.060102
Ti       5.81021     13.42622     11.08628         0.041640     -0.364609     -1.474122
Ti       5.84541      5.73110      2.30796        -0.258038      0.408395     -0.891195
Ti       5.73717      5.80066     15.36360         0.340210      0.114067     -0.233659
Ti       5.76068      5.78772      6.69453        -0.057785     -0.765348      0.161415
Ti       5.67364      5.68179     11.10054         0.381501     -0.126555     -1.724276
Ti       5.79546      9.61480      2.38529        -0.943295     -0.345715     -1.759492
Ti       5.82455      9.56076     15.39184        -0.747819      0.081524      0.057744
Ti       5.65996      9.64552      6.63509        -0.179087     -0.156621     -0.466974
Ti       5.62542      9.62932     11.07736         0.376724      0.557243     -1.557157
Ti       9.60420      1.97646      2.24538        -0.528024     -0.306747      0.698503
Ti       9.71346      1.76290     15.36589        -0.883672      0.833066     -0.926528
Ti       9.61762     13.46673      2.21721         0.254997     -0.528649      0.762194
Ti       9.68616     13.29820     15.40811        -1.477396      0.754028     -0.403487
Ti       9.61688      1.86449      6.71745         0.065771      0.582035     -0.569270
Ti       9.60919     13.41759      6.60009         0.500901     -0.810375     -0.072034
Ti       9.64770      1.85392     10.99667        -0.083289      0.411505      1.714473
Ti       9.53915     13.38156     11.00498         1.322364      0.745299     -0.706754
Ti       9.68598      5.76127      2.29113        -1.177477     -0.130384      0.952450
Ti       9.56805      5.82800     15.23799         0.376914     -1.531519      0.403362
Ti       9.56791      5.73737      6.66949         0.608553     -0.309218      0.137639
Ti       9.53106      5.77643     11.13345         0.943226     -0.223790     -1.333681
Ti       9.56808      9.62906      2.27497         0.164647      0.013215      0.369667
Ti       9.62011      9.52359     15.35421         0.224525      1.023672     -0.326211
Ti       9.56404      9.59451      6.57331        -0.178352      0.092709     -0.249283
Ti       9.48430      9.64009     10.98398         0.644964     -0.301367      0.663497
O       2.10623      1.99068      0.44273        -0.280586     -0.338046      0.908399
O       1.83055      1.88614     13.63207         0.430210      0.088072      0.198297
O       1.98946     13.51270      0.61500        -0.066823     -0.226516     -2.232260
O       1.80161     13.56556     13.62013         0.744941     -0.591392      0.711075
O      13.35073      1.78284      0.52116         0.408974      0.037982      0.836877
O      13.47477      1.96319     13.54900        -0.046991     -0.058883      0.672409
O      13.61689     13.45072      0.51579        -0.387746     -0.040958     -0.274453
O      13.51131     13.46038     13.58733         0.156324      0.066686      0.472375
O       1.92899      1.98702      4.83982         0.091656     -0.229406      0.405278
O       2.08354     13.44927      4.87431        -0.106656     -0.118273     -0.123147
O      13.53182      1.99373      4.81414        -0.472721     -0.007420      1.166358
O      13.51105     13.44122      4.86183        -0.158710     -0.070055     -0.152662
O       2.06898      1.92174      9.27413        -0.369836      0.026931     -0.571990
O       1.98553     13.64726      9.29254         0.467983     -0.577842     -0.314622
O      13.48469      1.99337      9.22194        -0.039461     -0.183202     -0.639743
O      13.46742     13.50750      9.22304        -0.163825     -0.105582      0.422975
O       1.89977      5.82233      0.49152         0.046629     -0.318367      0.804175
O       1.86728      5.79933     13.59766         0.285492     -0.110989      0.157486
O      13.44504      5.74861      0.42379        -0.214762      0.272485      1.060994
O      13.53486      5.77004     13.51081        -0.200638      0.000392     -0.060107
O       1.75534      5.71325      4.83397         0.649413      0.262760      0.805065
O      13.34603      5.57069      4.96818         0.684494      0.482969      0.289901
O       1.91110      5.63551      9.31112         0.317572      0.406138     -1.605933
O      13.49610      5.79107      9.23052        -0.039680      0.131938      0.407015
O       2.01085      9.47141      0.54828        -0.569924      0.216242     -0.303457
O       1.88322      9.62050     13.54120         0.019275     -0.103764      1.928388
O      13.45732      9.43112      0.44940        -0.118382      0.491767      1.475672
O      13.37819      9.64027     13.55598         0.228957     -0.217622      1.056799
O       1.92350      9.70932      4.82937        -0.167781     -0.648162      0.449494
O      13.31904      9.73106      4.83291         0.140631     -0.661427      0.127490
O       1.96491      9.64412      9.24655        -0.437944      0.122445     -0.000947
O      13.55448      9.73357      9.19393        -0.221423     -0.515249      0.257186
O       5.65011      1.98691      0.54300         0.032571     -0.016373     -0.947822
O       5.72769      2.11211     13.72354         0.132957     -0.455844     -1.112079
O       5.74862     13.54196      0.44750        -0.312340     -0.254760      0.065174
O       5.86135     13.36663     13.76899        -0.181434      0.127479     -0.153773
O       5.94800      1.89022      4.90163        -0.543557      0.175663     -0.058705
O       5.75115     13.39814      4.79301         0.294293      0.029944      0.536048
O       5.88412      1.87371      9.26524        -0.376517      0.000649     -0.077019
O       5.82952     13.46542      9.29409        -0.141673      0.094351      0.295682
O       5.86198      5.77244      0.48514        -0.087418     -0.037131      0.831767
O       5.73888      5.81551     13.55902         0.113882     -0.195131     -0.008881
O       5.83245      5.79407      4.92738        -0.314180     -0.097351      0.490915
O       5.59000      5.76720      9.23191         0.525310     -0.035676      1.259895
O       5.75707      9.50775      0.56590         0.045958      0.052708      0.748661
O       5.72787      9.65063     13.58004         0.206400     -0.084833      0.359531
O       5.65388      9.58251      4.81978        -0.011621      0.089753      0.250167
O       5.63022      9.63962      9.22052         0.564982      0.059092      1.435093
O       9.46353      2.02204      0.52300         0.684130     -0.499494     -1.193881
O       9.79111      1.75841     13.58324        -0.324086      0.488008      0.457385
O       9.55641     13.37566      0.46620         0.539018      0.329591     -0.998441
O       9.49237     13.33743     13.64140         0.183367     -0.076305     -0.159525
O       9.54270      1.80645      4.93342         0.257213     -0.032690     -0.190016
O       9.52207     13.25372      4.79406         0.301745      0.635177      1.065669
O       9.64410      2.07002      9.25565        -0.103663     -0.419398     -0.564836
O       9.70388     13.37142      9.19200        -0.286991      0.042429      0.689299
O       9.56808      5.69831      0.54690         0.122526      0.461518     -0.259045
O       9.48403      5.88688     13.46407         0.062343     -0.246273     -0.457648
O       9.57104      5.65454      4.92805         0.352405      0.378627     -0.681441
O       9.67500      5.75358      9.27884        -0.506404      0.095840      1.335954
O       9.54944      9.63371      0.51486         0.162968     -0.383858     -0.348829
O       9.64693      9.63123     13.55968        -0.143855      0.015767      0.871033
O       9.57757      9.72002      4.71219         0.499134     -0.293288      1.623575
O       9.38177      9.68364      9.22534         0.376718     -0.220221     -0.371305
O       3.82477      1.89382      2.70909         0.230670      0.137327      0.128527
O       3.80563      1.95823     15.68491         1.129535      0.162189      0.605645
O       3.86847     13.51899      2.65534         0.080717     -0.201714      0.020919
O       3.82606     13.27249     15.74383        -0.065525      0.419480      0.341342
O       0.06550      1.98426      2.64739        -1.070199     -0.322553     -0.332503
O       0.05022      1.91991     15.81764        -1.066642     -0.373170      0.201952
O       0.07804     13.38942      2.68637        -1.358866     -0.254695      0.210965
O       0.02266     13.34330     15.80443         0.875165      0.167488      0.480153
O       3.88414      1.96041      6.95920         0.074676     -0.152290      0.274144
O       3.95359     13.50783      7.03796        -1.161818     -0.451216      0.273045
O       0.00655      1.92094      7.06954         0.041940      0.277199     -0.001833
O       0.07367     13.50312      6.92442        -0.126555      0.299352      0.527797
O       3.86269      1.86930     11.47404        -0.250485      0.545653      0.161398
O       3.91336     13.32895     11.47314        -1.128219      0.499086      0.399837
O       0.00118      1.99451     11.42353         0.255642     -0.276680     -0.221545
O       0.05798     13.57384     11.28989        -0.488680     -0.297518      0.714845
O       3.89912      5.69390      2.72925        -1.117310      0.337214     -0.130420
O       3.84561      5.72169     15.62539         0.030485      0.032651      0.523124
O      15.33122      5.70658      2.66211         0.237793     -0.092304      0.072801
O      15.28655      5.64252     15.73894         0.295246      0.432850      0.230511
O       3.81908      5.69725      7.11732         0.225084      0.280450     -0.340230
O       0.05262      5.74148      7.06240        -0.307793      0.048407      0.357571
O       3.80382      5.67511     11.47076         0.349330      0.343132      0.255542
O       0.08922      5.89002     11.32487        -1.622534     -0.092103      0.548227
O       3.78204      9.52495      2.57302         0.627538      0.172727      0.920343
O       3.89378      9.35794     15.66725        -0.250963      0.632616      0.514059
O      15.31356      9.59936      2.68064        -0.264760      0.083913      0.302437
O       0.01562      9.61803     15.72923        -0.343150     -0.318640      0.324307
O       3.84793      9.70409      7.13663        -0.755923     -0.168377     -0.540226
O       0.03333      9.62052      7.03783        -0.805894     -0.174062     -0.047963
O       3.74739      9.84667     11.43776         0.900337     -0.773170      0.124498
O      15.32339      9.57202     11.48557        -0.277624     -0.351982     -0.354472
O       7.61868      1.98392      2.70509         0.841830     -0.244133      0.021086
O       7.80380      1.83080     15.63512        -1.009861      0.184190      0.388194
O       7.74847     13.41692      2.53021        -1.593647      0.000225      0.447165
O       7.69868     13.46530     15.87088         0.064569     -0.016512      0.240070
O       7.76161      1.83785      7.05877        -0.596739      0.340709      0.617044
O       7.74164     13.47656      7.06327        -0.016359     -0.566498     -0.328927
O       7.58605      1.85863     11.43211         1.256662      0.361320      0.474340
O       7.72752     13.36783     11.33538        -0.859566      0.208537      0.608029
O       7.74211      5.81950      2.80164         0.003981     -0.386578     -0.356816
O       7.68099      5.72528     15.68869         0.263826      0.205722      0.047031
O       7.71498      5.82977      7.02911        -1.179383      0.035698      0.586014
O       7.57380      5.74205     11.40916         1.246029      0.455934      0.008460
O       7.66219      9.49092      2.67856         0.105885      0.374923      0.163454
O       7.77133      9.51296     15.71054        -1.012362      0.333072      0.008599
O       7.60483      9.65122      6.93421         0.919446     -0.123224      0.317708
O       7.66203      9.63066     11.47270        -1.050338      0.018228     -0.231947
O      11.47308      1.78408      2.68822         0.801153      0.182127      0.031450
O      11.60095      1.92932     15.78439        -0.385045     -0.664878      0.260227
O      11.52848     13.53129      2.56663         0.626908      0.031803      0.295915
O      11.58102     13.29097     15.63229         0.179470      0.246555      0.844471
O      11.53507      2.05968      7.05563         0.514653     -0.622292     -0.062214
O      11.57306     13.39069      6.95634        -0.753071      0.352130      0.363680
O      11.57938      1.85785     11.43277        -0.999196     -0.113070     -0.262845
O      11.56277     13.46961     11.35169        -0.774941      0.083716      0.394146
O      11.51669      5.72080      2.63120         0.770981      0.412883      0.347847
O      11.49139      5.71951     15.55861         0.396944      0.614270      0.465733
O      11.55671      5.81438      6.99202        -0.124935      0.114999      0.876811
O      11.56213      5.85516     11.35826        -1.586634     -0.588397      0.485011
O      11.51416      9.52010      2.58248         0.227830     -0.142288      0.462143
O      11.54964      9.56577     15.83479        -0.104264      0.249019     -0.076920
O      11.51896      9.57211      7.14979        -0.103350     -0.124531     -0.558830
O      11.50188      9.63120     11.48075        -0.201711      0.230648     -0.864988
O       1.88126      3.79479      2.71142         0.605679      0.913331     -0.264904
O       1.81231      3.83450     15.71946         0.885061      0.128645      0.474273
O       1.78406     15.33910      2.77353         1.044281      0.673912     -0.481873
O       1.98254     15.31329     15.78077         0.085968     -0.239435      0.378955
O      13.35600      3.82120      2.65612         0.303336     -0.273109     -0.057841
O      13.39998      3.78682     15.84765         0.253816      0.041419     -0.490113
O      13.55610     15.31467      2.68448        -0.207288      0.355116     -0.067120
O      13.52579     15.31626     15.81335        -0.402005      0.317751     -0.002201
O       1.95847      3.82785      6.96277        -0.173807      0.020092      0.674005
O       1.94476      0.06665      7.04246         0.357875     -0.638007      0.207579
O      13.48576      3.84405      7.18766         0.114000      0.168002     -0.215172
O      13.43133      0.03460      6.96328        -0.159020      0.771820      0.422118
O       1.84260      3.84009     11.34303         0.575506     -0.014816      0.737995
O       1.95695      0.02134     11.37048         0.321126      0.272852      0.779676
O      13.32968      3.86851     11.33160         0.584289      0.125654      0.561115
O      13.51117      0.03309     11.34601        -0.311390      0.063532      0.405750
O       1.85563      7.66517      2.72130        -0.058789     -0.500656      0.329649
O       1.84141      7.59245     15.71677         0.088462      1.116312      0.444550
O      13.56234      7.58564      2.66452        -0.744137      1.009541      0.526286
O      13.45722      7.66056     15.74291        -0.014529      0.219248     -0.137186
O       1.92463      7.68620      7.08512         0.076988     -0.307489     -0.240714
O      13.55888      7.74139      7.00305        -0.049503     -0.931632      0.105111
O       1.98160      7.73985     11.38300         0.275557     -0.297107      0.145617
O      13.25619      7.68964     11.24727         1.201772      0.814866      0.391909
O       1.84002     11.51149      2.70963         0.794541      0.041422     -0.207793
O       2.02944     11.39582     15.86365        -0.431302      0.785778      0.063066
O      13.23550     11.48056      2.52379         1.029435      0.238290      0.377627
O      13.58125     11.51405     15.67121        -0.445220     -0.633850      0.773396
O       1.82721     11.52871      6.97592         0.929796      0.349382      0.413948
O      13.47531     11.55516      7.02690         0.109812     -0.552948      0.239477
O       1.72370     11.54549     11.41358         0.630472      0.475837      0.151829
O      13.47048     11.50741     11.34852         0.072116      0.590737      0.468417
O       5.81039      3.87707      2.70167        -0.264546     -0.483337      0.305465
O       5.84286      3.87866     15.85497        -0.660031     -0.553057     -0.506099
O       5.81225      0.06066      2.58164        -0.265272     -0.639251      0.281046
O       5.70978     15.33742     15.78439        -0.184127      0.912378      0.184827
O       5.78979      3.81597      7.11966         0.483717      0.336679     -0.129781
O       5.78888     15.31412      7.04752         0.337861      0.450875      0.079493
O       5.80996      3.83116     11.42371        -0.494954     -0.204311      0.099423
O       5.68027     15.28978     11.50009         0.356484      0.454608      0.404695
O       5.77960      7.58032      2.78909        -0.361217      1.137903      0.044672
O       5.88860      7.63914     15.78120        -0.217731      0.211706     -0.100397
O       5.66664      7.72744      7.14220         0.343881     -0.528213     -0.273129
O       5.61514      7.72857     11.29687         0.105341     -0.135888      0.589338
O       5.78932     11.54865      2.61475        -0.289161     -0.321648      0.003958
O       5.82266     11.46959     15.91772        -0.238131     -0.792806     -0.111909
O       5.76311     11.52835      7.07004         0.175177      0.372061     -0.174767
O       5.73499     11.55275     11.37113         0.527397     -0.783334      0.674329
O       9.67288      3.80157      2.71292        -0.266377      0.544058      0.220177
O       9.67346      3.93155     15.76195        -0.365557     -0.718165     -0.461092
O       9.56144     15.34287      2.61473        -0.222606      0.844321      0.335630
O       9.71631     15.25258     15.62440         0.215316      0.533780      0.984368
O       9.64369      3.82952      6.93826        -0.425890     -0.093414      0.760270
O       9.72711     15.30960      7.13758        -0.340516     -0.005724     -0.625219
O       9.67348      3.76757     11.52734        -0.645724      0.857101     -0.199308
O       9.45464      0.00179     11.42376         0.753582     -0.449043     -0.202665
O       9.73608      7.71175      2.74927        -0.723644     -0.738592     -0.271617
O       9.59266      7.66893     15.81124         0.372841     -0.326104     -0.079474
O       9.60038      7.73080      6.95015         0.009609      0.157522      0.314107
O       9.55806      7.77445     11.38485        -0.077788     -1.400061     -0.112332
O       9.63693     11.50875      2.55536        -0.018748     -0.234532      0.446917
O       9.56725     11.48539     15.90374         0.333943     -0.842131     -0.306712
O       9.75986     11.47714      7.00533        -0.832180      0.323000     -0.092118
O       9.62708     11.53151     11.43324        -0.126153     -0.142791     -0.135411
