  # total energy = -7882.62526787 
CRSYTAL
PRIMVEC
    15.3600000000000000    0.0000000000000000    0.0000000000000000
     0.0000000000000000   15.3600000000000000    0.0000000000000000
     0.0000000000000000    0.0000000000000000    17.440000000000000
PRESSURE
0.364007 0.304256 -3.94325 0.171799 0.255862 0.01309
PRIMCOORD
320 1
Pb       3.74529      3.84900      4.25284         0.217793      0.429076      0.106097
Pb       3.79030      3.85508     17.33871         0.046333     -0.280312      0.655955
Pb       3.82392      0.01883      4.23367        -0.095275      0.378639      0.428134
Pb       3.85659      0.08151      0.04862        -0.256116      0.083164     -0.352711
Pb      15.26784      3.83488      4.32665        -0.142568     -0.296453      0.015699
Pb      15.28217      3.84962     17.41758        -0.167705     -0.246506     -0.357155
Pb      15.23021     15.26374      4.29099         0.427834      0.691491      0.418207
Pb      15.30751     15.30207      0.03547         0.486763      0.492698     -0.186433
Pb       3.83761      3.79884      8.71690         0.072985      0.279635     -0.814372
Pb       3.82099     15.28685      8.77971         0.038741      0.263285     -0.857332
Pb       0.06767      3.68110      8.67797         0.087969      0.566266      0.340930
Pb       0.06105      0.00786      8.64039         0.213215     -0.040099     -0.509007
Pb       3.69398      3.88949     13.06122         0.550414     -0.051313     -0.242119
Pb       3.84347     15.24972     13.19489         0.213954      0.326625     -0.500539
Pb      15.27582      3.82468     13.03444        -0.014855     -0.096503     -0.407443
Pb       0.01783      0.03932     13.00925         0.036542      0.141299      0.125845
Pb       3.82222      7.63016      4.27227        -0.088139     -0.173261     -0.172372
Pb       3.77850      7.71291     17.41738         0.315761      0.181250     -0.040554
Pb      15.29335      7.57439      4.36805         0.019759      0.025243      0.027630
Pb      15.33596      7.72365     17.35695        -0.284236     -0.346361     -0.027494
Pb       3.91861      7.56437      8.77847        -0.382744     -0.153132     -0.800389
Pb       0.03068      7.63035      8.75438        -0.394427      0.054888     -0.656989
Pb       3.77846      7.74257     13.04614         0.134461     -0.340155      0.242198
Pb       0.04745      7.68252     12.95042        -0.230242      0.023598      0.632816
Pb       3.76090     11.47427      4.27200         0.404566     -0.349847     -0.157016
Pb       3.86168     11.44083     17.43940        -0.158591     -0.020090     -0.254340
Pb      15.33189     11.51150      4.29032        -0.311344     -0.175700      0.414381
Pb       0.00927     11.46372     17.43253        -0.222142      0.162787     -0.556729
Pb       3.72724     11.52930      8.67272         0.152793      0.082475      0.016189
Pb       0.00281     11.43891      8.64131        -0.335465      0.345923      0.045867
Pb       3.77982     11.54722     13.06749        -0.199509      0.250584      0.301252
Pb      15.24023     11.45373     13.14818        -0.181815      0.271894     -0.577129
Pb       7.64291      3.83661      4.40104         0.193392     -0.019040     -0.067547
Pb       7.64451      3.88702     17.29689         0.845401     -0.103071      0.149565
Pb       7.66162      0.08453      4.20824         0.106822     -0.138952      0.337394
Pb       7.74745     15.34115      0.00241         0.076254      0.085037     -0.605173
Pb       7.70414      3.66877      8.76830         0.265891      0.144776     -0.454954
Pb       7.62889     15.24940      8.64305         0.278886      0.288730      0.008476
Pb       7.58458      3.74481     13.17025         0.354134      0.144973     -0.619927
Pb       7.61075     15.23210     13.17084         0.403366      0.256684     -0.414482
Pb       7.58093      7.68936      4.31836         0.361535     -0.242043      0.094029
Pb       7.78573      7.57591     17.40722        -0.144096      0.188462     -0.105438
Pb       7.53649      7.69098      8.68396         0.310014     -0.263704      0.032656
Pb       7.57221      7.61082     12.99614         0.322586      0.049009     -0.050220
Pb       7.67662     11.51797      4.32562         0.108634      0.202213     -0.544859
Pb       7.74132     11.48615      0.04644         0.101927     -0.011098     -0.158645
Pb       7.61597     11.39397      8.71431         0.049744      0.726546     -0.230544
Pb       7.60428     11.41063     13.10982        -0.020661      0.131677     -0.070129
Pb      11.46684      3.83805      4.41003         0.680671      0.238030     -0.651201
Pb      11.45419      3.81747     17.32249         0.413569      0.016322      0.301059
Pb      11.37836      0.08344      4.27741         0.776781     -0.314583     -0.207639
Pb      11.65263     15.35689     17.33786        -0.110661      0.419398      0.366139
Pb      11.54631      3.79092      8.74894        -0.148663      0.100066     -0.135203
Pb      11.48412     15.20470      8.63330         0.159611      0.396953      0.296594
Pb      11.48708      3.86462     13.05627        -0.250046     -0.023159     -0.717144
Pb      11.52076     15.31176     12.98971        -0.285597     -0.065105     -0.207798
Pb      11.44712      7.76930      4.34171         0.119659     -0.269743     -0.527034
Pb      11.52871      7.59119     17.40379        -0.008231      0.163600     -0.145875
Pb      11.41550      7.58255      8.72655         0.550093      0.251960     -0.039724
Pb      11.58576      7.74142     12.86511        -0.494027     -0.089558      0.232419
Pb      11.45322     11.50314      4.45582         0.181519      0.082796     -0.533428
Pb      11.60317     11.54254      0.02305        -0.043133     -0.476613     -0.603461
Pb      11.44682     11.53179      8.75663         0.373369     -0.115313     -0.309990
Pb      11.40295     11.46496     12.99959         0.917932      0.145877     -0.003687
Ti       1.92001      1.96328      2.31375        -0.636539      0.276998     -1.362592
Ti       1.96469      1.91449     15.37783        -0.679587     -1.231327      0.756335
Ti       1.99924     13.43074      2.32643        -0.908870      0.485250     -0.695099
Ti       1.91538     13.42058     15.44092        -0.137604      0.306606     -0.263130
Ti      13.44462      1.91068      2.33852         0.044277     -0.101340     -0.413923
Ti      13.54159      1.91796     15.34386        -0.648336      0.759168      0.287419
Ti      13.52421     13.40211      2.27666        -1.455792      0.553993     -0.407369
Ti      13.49685     13.45771     15.36170         0.125193     -0.668092     -0.933551
Ti       2.01814      1.95606      6.57971        -0.096236     -0.745746      1.269043
Ti       2.04256     13.46490      6.62229        -1.020475      0.877418     -0.763940
Ti      13.46819      1.99262      6.68796         0.195531     -0.575300     -1.813876
Ti      13.48127     13.50967      6.69314         0.208133     -0.672287     -1.414354
Ti       2.05528      1.92688     11.04808        -0.997530      0.294205     -0.632962
Ti       1.89107     13.49271     11.06830         0.614555     -0.513786     -0.942662
Ti      13.47503      1.90286     10.96305        -0.141102      0.755045      0.800338
Ti      13.52661     13.55483     11.00589        -1.507232     -1.589476     -0.195032
Ti       1.80990      5.79868      2.27238         1.766159     -0.502558      0.677463
Ti       1.90550      5.73368     15.39643        -0.989316      0.264840     -1.590399
Ti      13.48390      5.73693      2.21348        -1.722117     -0.830259     -0.342025
Ti      13.42559      5.84462     15.31099         0.070946     -1.621744      0.290913
Ti       1.85248      5.72809      6.69950         1.393612      0.162879     -0.934485
Ti      13.45293      5.75097      6.77497         0.271159     -0.051765     -1.386307
Ti       1.89585      5.78803     11.01534         0.268951     -0.760835     -0.653791
Ti      13.48157      5.79835     10.99206        -1.228187      0.306240     -1.698118
Ti       1.80697      9.60146      2.33860         0.713664     -0.859214      0.072670
Ti       1.85091      9.57020     15.43075         0.574071      0.045541     -1.122460
Ti      13.36755      9.58920      2.30945         0.013481     -0.510373     -1.430975
Ti      13.38959      9.57601     15.38358         0.118153      0.618664     -0.083998
Ti       1.84301      9.59957      6.62949         0.313121     -0.733927     -0.824736
Ti      13.37520      9.62548      6.67081        -0.302829     -0.281993     -0.088773
Ti       1.88418      9.61091     11.01798        -0.813936      1.582215     -1.250839
Ti      13.46893      9.66188     10.97907        -1.137922      0.232810     -0.713925
Ti       5.79586      1.98407      2.31297        -0.834264     -0.290955     -1.599507
Ti       5.73450      1.97865     15.48804         0.553014     -0.798643     -1.301120
Ti       5.77638     13.50056      2.23824         0.907267     -0.718904     -0.225562
Ti       5.76063     13.40208     15.55152         0.190597      0.278478      0.395334
Ti       5.81967      1.90341      6.69205        -0.345131     -0.020012     -0.989807
Ti       5.80023     13.41897      6.58599         0.266804      0.879662      0.939275
Ti       5.79350      1.87522     11.02187         0.007541     -0.084885     -0.450855
Ti       5.78626     13.42409     11.02428        -0.218257      0.181353      0.132586
Ti       5.87864      5.72696      2.30640        -1.229449      0.345577     -0.082126
Ti       5.73713      5.82912     15.38175         0.453763     -0.485115     -1.334683
Ti       5.85604      5.71413      6.68168        -1.829105     -0.184758     -0.272860
Ti       5.69475      5.71975     11.05890         0.516398      0.044804     -0.333010
Ti       5.76459      9.59550      2.33537        -0.642828     -0.041520      0.076828
Ti       5.80814      9.55914     15.39437        -0.348345     -0.037147     -0.830819
Ti       5.66644      9.63252      6.68369        -0.633709     -0.361458     -1.028900
Ti       5.60530      9.68874     11.09538         1.302190     -1.178153     -0.716535
Ti       9.61047      1.97133      2.23682         0.525834      0.142130     -0.843840
Ti       9.67873      1.77240     15.33855        -0.054760      0.868217     -0.492268
Ti       9.66727     13.42440      2.22959        -0.130941     -0.031074     -0.366766
Ti       9.66907     13.31189     15.39840        -0.486413      0.551129     -0.289907
Ti       9.65716      1.88075      6.67807        -0.570726      0.167720     -0.385278
Ti       9.61689     13.41729      6.60597        -0.155565     -0.213664      0.603724
Ti       9.61416      1.87206     11.02071         0.335432      0.386694      0.244161
Ti       9.56818     13.38593     10.99165         1.012297      1.141612     -0.401910
Ti       9.64669      5.75034      2.33967         0.471594      0.288067     -0.668042
Ti       9.60756      5.76000     15.24457        -0.168304     -0.429678     -0.445373
Ti       9.60111      5.78268      6.63349        -0.019928     -1.113923     -0.382275
Ti       9.54812      5.79496     11.07143         0.758563     -0.428006      1.019519
Ti       9.55720      9.61524      2.23974         0.208612     -0.885990     -0.037478
Ti       9.60014      9.53807     15.38312         0.407443      0.066804     -0.189597
Ti       9.50570      9.60442      6.66896         2.131605      0.438849     -1.886908
Ti       9.48791      9.65691     11.04260         0.521019     -1.372783      0.288798
O       2.05964      1.94984      0.46531        -0.193002     -0.126355      1.497740
O       1.86518      1.72482     13.61151         0.385874      0.729404     -0.113709
O       1.98404     13.43734      0.54131        -0.206947     -0.180625      0.958418
O       1.87514     13.46144     13.63019         0.192162     -0.053373      0.526761
O      13.42400      1.85380      0.53838         0.278793     -0.124210      0.250549
O      13.46106      1.88609     13.54597         0.230416      0.414558      0.712566
O      13.55678     13.51917      0.44330        -0.237959     -0.442565      1.012901
O      13.50173     13.43678     13.55784         0.326916      0.083922      0.755800
O       1.99543      1.91608      4.86103        -0.046351      0.240980     -1.158766
O       2.04399     13.53283      4.81739         0.063157     -0.551473      0.516124
O      13.47959      2.02675      4.79913        -0.230968     -0.191527      1.984674
O      13.44839     13.38656      4.85721         0.112525      0.082391      1.457035
O       2.04376      1.97794      9.24488        -0.041992     -0.430909      0.879382
O       2.06265     13.58390      9.25035        -0.211350     -0.205955      0.432078
O      13.47596      1.95454      9.22576         0.036447     -0.154076     -0.451624
O      13.45315     13.51415      9.23482         0.104437      0.109367     -0.661904
O       1.91636      5.79077      0.52199        -0.043832      0.167320     -0.895028
O       1.89104      5.84312     13.53252        -0.106294     -0.472613      1.355972
O      13.42499      5.71634      0.37075         0.239226      0.416362      1.733859
O      13.50646      5.81913     13.51298         0.077021     -0.142602      0.403037
O       1.78371      5.72113      4.86894         0.242077      0.103887      0.940082
O      13.46715      5.53933      4.88406         0.101900      0.612645      1.738354
O       1.87026      5.68653      9.22850         0.564782      0.515406      0.621045
O      13.49586      5.83964      9.12775        -0.244430     -0.079003      1.378383
O       1.93770      9.52180      0.55565        -0.308088     -0.001307     -0.519689
O       1.85854      9.65285     13.64578        -0.034041     -0.093305     -0.257810
O      13.36414      9.43208      0.43212         0.306789      0.575855      1.920923
O      13.38993      9.72767     13.60510         0.199297     -0.528445     -0.112264
O       1.82493      9.65465      4.79113         0.263782     -0.100212      1.253907
O      13.27651      9.74203      4.83447         0.194017     -0.446314      0.850726
O       1.86358      9.61444      9.19508         0.183734      0.206943      1.236705
O      13.48273      9.61045      9.20095         0.134699      0.120879     -0.061157
O       5.67490      1.97799      0.46844         0.345113      0.027408      1.022052
O       5.69138      1.98420     13.67398         0.287792      0.055963      0.359843
O       5.77618     13.47577      0.44103        -0.086344     -0.038630      0.316724
O       5.79138     13.42087     13.78758         0.098620     -0.097592      0.034084
O       5.88788      1.96464      4.88580        -0.145110     -0.267745      0.203297
O       5.77274     13.42819      4.85094         0.101409      0.008392     -0.432430
O       6.00528      1.82073      9.21340        -0.808178      0.268367      0.763190
O       5.78964     13.41840      9.26807        -0.171875      0.117569     -0.180505
O       5.89961      5.75782      0.51007        -0.197536      0.014374      0.684634
O       5.74838      5.79999     13.51305        -0.020934     -0.110335      1.441595
O       5.85735      5.82584      4.89717        -0.204030     -0.321022      0.327580
O       5.69525      5.79900      9.23880         0.288185      0.074613      0.802634
O       5.69697      9.52450      0.58726         0.051674      0.039878     -0.465046
O       5.77750      9.64413     13.55617        -0.159069     -0.087173      0.980862
O       5.63761      9.55417      4.86628         0.172774      0.286508      1.312652
O       5.65181      9.57842      9.29606         0.316602      0.523088     -0.162422
O       9.65699      1.96857      0.41327        -0.298433     -0.292234      1.925017
O       9.71699      1.79112     13.50200        -0.239741      0.331151      1.226305
O       9.57406     13.37120      0.41545         0.574941      0.183428      1.356974
O       9.54931     13.39408     13.58936         0.010495     -0.274235      1.234602
O       9.51289      1.76433      4.85888         0.482843      0.373411      0.528574
O       9.50563     13.27299      4.83946         0.190933      0.457032     -0.393532
O       9.66233      2.05795      9.19992        -0.435231     -0.526902      1.148075
O       9.74860     13.43815      9.18261        -0.544817     -0.404527      0.991136
O       9.56966      5.73884      0.54340        -0.108293      0.261349      0.259717
O       9.46089      5.79037     13.43795         0.559420     -0.218397      1.464148
O       9.52215      5.59011      4.86154         0.648835      0.914357      0.795514
O       9.63462      5.73832      9.33281        -0.390949      0.082494     -1.357175
O       9.49856      9.61492      0.42421         0.384551     -0.451140      1.192888
O       9.64317      9.61737     13.58277        -0.310628      0.253436      0.584349
O       9.59814      9.73533      4.74853         0.133774     -0.467666      2.201429
O       9.43085      9.69963      9.27450         0.128345     -0.133986     -0.265112
O       3.84102      1.91295      2.72766         0.010689      0.213414     -0.036679
O       3.85757      2.00378     15.76623        -0.403347     -0.419638      0.108028
O       3.87234     13.49631      2.61520        -0.407852     -0.217548      0.223050
O       3.83423     13.34088     15.84802         0.682321      0.033925     -0.204931
O      15.32893      2.00205      2.70016         0.768180     -0.395332     -0.229983
O       0.09129      1.91700     15.81137        -0.938026      0.062213     -0.182418
O      15.35991     13.33697      2.69793         0.514880      0.368229     -0.056642
O       0.02017     13.40445     15.84100         0.432880     -0.186480      0.015929
O       3.91840      1.93371      7.00993        -0.364627      0.080423      0.290647
O       3.94140     13.50180      7.07626        -0.883639     -0.434761     -0.055250
O       0.05266      1.98367      7.08921        -0.173551     -0.563752     -0.224621
O       0.05206     13.54954      6.97948        -0.388429     -0.144434      0.286842
O       3.87748      1.89674     11.47734        -0.224406      0.092834     -0.034746
O       3.88223     13.33535     11.53871        -0.934731      0.557212     -0.100305
O       0.01173      1.97826     11.43712        -0.045083     -0.031509     -0.113792
O      15.35549     13.44841     11.33398         0.107520      0.899248      0.360478
O       3.86465      5.68308      2.74742        -0.182974      0.718859     -0.314911
O       3.86331      5.72731     15.61759        -0.612926      0.302154      0.529546
O      15.35620      5.68299      2.68344        -1.074076      0.125858     -0.148265
O      15.33496      5.70196     15.80294         0.480557     -0.095407     -0.297084
O       3.88375      5.69051      7.09358        -0.374595      0.297502      0.092498
O       0.05509      5.74501      7.15403        -0.861022     -0.309720     -0.185905
O       3.76699      5.80319     11.50342         0.569197     -0.098112     -0.276946
O       0.02376      5.89036     11.32421        -0.361404      0.010537      0.423782
O       3.75615      9.51675      2.64363         0.274778      0.471779      0.419623
O       3.82200      9.41917     15.68638         0.380030      0.290938      0.617742
O      15.24426      9.65336      2.72360         0.280515      0.064158     -0.161533
O      15.32311      9.62516     15.72115         0.414720     -0.560484      0.639230
O       3.79578      9.74845      7.13093         0.185725     -0.568721     -0.584906
O       0.02559      9.59154      7.06124        -0.473255      0.102154     -0.163807
O       3.76089      9.77815     11.47324        -0.461368     -0.192947     -0.033815
O      15.31753      9.52211     11.41549         0.767052      0.226177      0.127279
O       7.63853      1.99341      2.65675         1.511092     -0.429406     -0.100127
O       7.81120      1.80758     15.67575        -0.754617      0.428297      0.265708
O       7.64748     13.38901      2.58696         0.800897      0.258937      0.152475
O       7.77763     13.40964     15.91949        -0.955384      0.311208     -0.548845
O       7.76947      1.83455      6.99728        -0.274323      0.209973      0.682708
O       7.76684     13.47754      7.13579        -1.109106     -0.638707     -0.577213
O       7.59499      1.95282     11.43809         1.172456     -0.115213      0.321964
O       7.68522     13.46487     11.37957        -0.256178     -0.644124      0.232202
O       7.71314      5.82543      2.76991        -0.649766     -0.254538     -0.253851
O       7.70008      5.78919     15.72304        -0.200325     -0.427802     -0.017173
O       7.71080      5.83675      6.97024         0.185421     -0.024662      0.736990
O       7.65472      5.70193     11.51799        -1.056647      0.349734     -0.685811
O       7.69281      9.41632      2.71695        -0.204343      1.003063     -0.362953
O       7.70576      9.52733     15.72024        -0.201476     -0.007910     -0.053759
O       7.71500      9.64818      7.01903        -1.739408     -0.032077      0.281072
O       7.56617      9.66427     11.48365         0.821195     -0.041409     -0.300764
O      11.49793      1.83548      2.68120        -0.960068      0.136313      0.133675
O      11.56953      1.89527     15.89113         0.476032     -0.079806     -0.860046
O      11.57373     13.59449      2.64748        -0.932376     -0.868485     -0.305618
O      11.64320     13.37039     15.67477        -1.014536     -0.187629      0.491818
O      11.58440      2.00434      7.07258        -0.563457     -0.233111     -0.182265
O      11.50887     13.38819      7.02786         1.157700      0.207556      0.034671
O      11.51014      1.78093     11.39040        -0.154139      0.724058     -0.220866
O      11.55227     13.46366     11.37154        -0.463990      0.110430      0.218666
O      11.57303      5.69628      2.63366         0.229582      0.509006      0.260003
O      11.48000      5.74747     15.64182         0.767257      0.220851     -0.062546
O      11.55477      5.74710      7.06010        -0.694293      0.156776      0.021359
O      11.49614      5.81559     11.37821         0.453794     -0.228859      0.277177
O      11.46760      9.58680      2.64112         0.404285     -0.516879      0.111585
O      11.58302      9.57195     15.84020        -1.328233      0.066833     -0.069203
O      11.48782      9.51118      7.14046         0.295735      0.401296     -0.352844
O      11.49574      9.63370     11.46304        -0.260748      0.131020     -0.462841
O       1.83888      3.88621      2.59502         0.708631     -0.524712      0.402757
O       1.96662      3.76577     15.74883        -0.237220      1.535994     -0.297975
O       1.81040      0.09176      2.78077         0.549452     -1.392791     -0.607090
O       1.92773     15.29646     15.88970         0.482816      0.140494     -0.405454
O      13.33827      3.74314      2.67206         0.442487      1.736032     -0.122417
O      13.47537      3.82820     15.82024        -0.069489     -0.232955     -0.745053
O      13.49359     15.34736      2.77186         0.085307     -0.643568     -0.355202
O      13.54901      0.04355     15.79026        -0.203047     -0.758970     -0.227431
O       1.96196      3.78255      7.07211         0.036697      0.841297      0.081070
O       1.96367      0.02779      7.01993         0.233055     -0.266978      0.374751
O      13.48144      3.82454      7.20799         0.037717      0.500428     -0.278082
O      13.43036      0.09070      6.99928         0.098265     -1.147094      0.189571
O       1.90592      3.88272     11.33648         0.104734     -0.194640      0.755069
O       1.91112      0.05121     11.40774         0.168106     -0.425879      0.184287
O      13.37913      3.93915     11.33669         0.332112     -1.022147      0.435891
O      13.43340      0.06885     11.38672         0.491966     -0.544926      0.053884
O       1.75331      7.70264      2.72093         0.234580     -0.520033      0.051027
O       1.76380      7.61355     15.68475         0.661106      0.079118      0.574703
O      13.51109      7.60298      2.72537        -0.461102      0.497038     -0.151295
O      13.44823      7.63785     15.79233         0.110921      0.278401     -0.303565
O       1.87923      7.63973      7.05253         0.482378      0.758375     -0.153770
O      13.51693      7.67446      6.99771        -0.056351     -0.021605     -0.135046
O       1.98517      7.78771     11.43257        -0.131858     -0.703495     -0.179148
O      13.29096      7.72861     11.24406         0.801558     -0.468349      0.606430
O       1.87984     11.48075      2.65642         0.433705      1.146843      0.173581
O       1.95057     11.42430     15.85339        -0.078521      0.857040      0.228263
O      13.32004     11.50432      2.58678         0.237895      0.142376     -0.145895
O      13.55546     11.45866     15.75476        -0.338421      0.988153      0.485011
O       1.83054     11.56510      6.95667         0.649284      0.072219      0.295010
O      13.48882     11.48450      7.06628        -0.115232      0.700492      0.079412
O       1.70157     11.64538     11.32188         0.874681     -1.708653      0.421952
O      13.42352     11.52982     11.30160         0.382017      0.378035      0.442961
O       5.80346      3.81635      2.72399        -0.089143      1.033716      0.000099
O       5.77421      3.84441     15.84358         0.360605      1.122986     -0.331349
O       5.79096      0.05021      2.61253        -0.044596     -0.547575      0.101640
O       5.71320      0.11765     15.82134         0.231742     -2.146478      0.207171
O       5.79926      3.82404      7.06526         0.670781      0.200254      0.271299
O       5.76499      0.04276      7.04829         0.422773     -1.316428      0.106133
O       5.67188      3.82763     11.27750        -0.011710     -0.038441      0.419172
O       5.68245     15.27935     11.52666         0.281995      0.786427     -0.070708
O       5.71159      7.71600      2.77563         0.136662     -1.108483     -0.129585
O       5.82587      7.65306     15.87243        -0.344323     -0.101536     -0.344459
O       5.69833      7.69591      7.13154         0.315370      0.640554     -0.051350
O       5.64466      7.71413     11.33009         0.101992     -0.057171      0.456547
O       5.80812     11.53814      2.70010        -0.568144     -0.360550     -0.129562
O       5.85674     11.38219     15.89477        -0.601210      1.180377     -0.203558
O       5.75586     11.55319      7.01078         0.392470     -0.574777      0.175021
O       5.73921     11.54975     11.44840         0.228719     -0.113595      0.308818
O       9.65453      3.91468      2.73363        -0.454352     -2.217765     -0.113433
O       9.69234      3.84846     15.82043        -0.800722     -0.017829     -1.144917
O       9.61442     15.34362      2.62896        -0.831977      0.275136     -0.126815
O       9.76932     15.28809     15.74285        -0.388892     -0.514288      0.030932
O       9.58562      3.79131      6.98531         0.011838      0.821914      0.264206
O       9.69072     15.29417      7.11278         0.001045      0.663197     -0.490917
O       9.64620      3.84542     11.50129        -0.218532     -1.080643     -0.220962
O       9.51757     15.26731     11.45444         0.142673      1.127239     -0.317797
O       9.65837      7.60970      2.76783         0.037964      1.008885     -0.086422
O       9.60949      7.65138     15.72902         0.151090     -0.112238      0.175410
O       9.59202      7.72012      7.07434        -0.087896     -0.530566     -0.214512
O       9.61876      7.72852     11.38785        -0.671004      0.227884     -0.070933
O       9.62865     11.46894      2.57049        -0.257546      0.855588      0.077532
O       9.57634     11.41637     15.91753         0.517654      0.924642     -0.705341
O       9.71602     11.51974      7.02907        -0.614273     -0.633175      0.200688
O       9.68927     11.50916     11.39479        -0.912021      0.382351      0.020442
