  # total energy = -7881.08908842 
CRSYTAL
PRIMVEC
    15.3600000000000000    0.0000000000000000    0.0000000000000000
     0.0000000000000000   15.3600000000000000    0.0000000000000000
     0.0000000000000000    0.0000000000000000    17.440000000000000
PRESSURE
2.01488 2.26476 -0.500525 0.270284 0.126465 -0.026141
PRIMCOORD
320 1
Pb       3.78714      3.87115      4.21990        -0.029713     -0.500227      0.688031
Pb       3.77205      3.88997     17.33560         0.288965      0.020980     -0.061049
Pb       3.84146      0.01449      4.22424         0.409040     -0.016118      0.148011
Pb       3.95124      0.07756      0.02053        -0.360274     -0.607720      0.636106
Pb      15.21914      3.89758      4.28003         0.438480      0.054856      0.611998
Pb      15.21616      3.77888     17.39614         0.210342      0.182113      0.084556
Pb      15.22714     15.29636      4.30279         0.014821      0.253012      0.799265
Pb       0.03979     15.33739      0.01359        -0.080899     -0.014620     -0.300241
Pb       3.90645      3.86852      8.60603         0.133538     -0.454158      0.727942
Pb       3.77554     15.25870      8.78420         0.435864      0.266316     -0.130797
Pb       0.12971      3.67065      8.66061        -0.415987      0.238665     -0.053618
Pb       0.15278     15.32177      8.58817        -0.639220      0.113222      0.540649
Pb       3.80411      3.93524     13.08474        -0.061288     -0.443127     -0.373685
Pb       3.95713     15.28029     13.25123        -0.497271      0.734606     -0.852158
Pb      15.23673      3.84859     12.98581         0.381319      0.355263      0.234857
Pb      15.35188      0.05320     12.99505        -0.221343     -0.682790      0.041953
Pb       3.81237      7.63789      4.27449        -0.000333     -0.054230      0.459331
Pb       3.82166      7.77525      0.01119        -0.084469     -0.349757     -0.669022
Pb      15.22268      7.47176      4.31732        -0.035600      0.194279      0.033806
Pb       0.12578      7.70125     17.39226        -0.331720     -0.266703     -0.153045
Pb       3.85608      7.53258      8.70484        -0.042238      1.007694      0.515838
Pb      15.33230      7.66718      8.69878         0.190946     -0.184041      0.077928
Pb       3.79195      7.80882     13.08405         0.416675      0.023264     -0.242176
Pb       0.01883      7.72773     12.90563        -0.589886     -0.297550      0.552054
Pb       3.81113     11.42284      4.31476        -0.125520      0.425138      0.089131
Pb       3.76784     11.40642     17.42498         0.289547      0.415055      0.128204
Pb       0.00375     11.44335      4.26696        -0.806223      0.107604      0.481138
Pb       0.07288     11.39806      0.04187        -0.447588      0.455601      0.142250
Pb       3.70351     11.50978      8.68565         0.510163      0.000924     -0.055048
Pb       0.07682     11.53783      8.60384        -0.506459      0.141269      0.625016
Pb       3.74848     11.57334     13.01634         0.319866     -0.555292      0.174760
Pb      15.16302     11.41857     13.07568         0.339381      0.513160     -0.132523
Pb       7.60176      3.92062      4.32784         0.058098     -0.524256     -0.282039
Pb       7.70351      3.85540     17.28012        -0.251052      0.038705      0.682070
Pb       7.60120      0.03487      4.17877         0.089053      0.156484      0.356616
Pb       7.79121     15.29117     17.43229        -0.241997      0.212970      0.687099
Pb       7.70181      3.71198      8.72426         0.171893      0.284486     -0.027425
Pb       7.66453     15.33657      8.65085        -0.012291      0.257696      0.613157
Pb       7.50215      3.68482     13.07031         0.367323      0.172012      0.634440
Pb       7.68034     15.09266     13.15700         0.297373      1.222752     -0.076696
Pb       7.57072      7.74219      4.33431         0.307476     -0.018400      0.115703
Pb       7.79957      7.51562     17.38647        -0.277403      0.372184      0.000542
Pb       7.57139      7.66185      8.68055         0.585242     -0.459388      0.327905
Pb       7.65523      7.61158     12.99985         0.345969     -0.099188      1.010028
Pb       7.66898     11.52826      4.26356         0.312199     -0.559494      0.440951
Pb       7.71504     11.46267     17.40018        -0.048621      0.013037     -0.024789
Pb       7.72723     11.38707      8.75997        -0.556837      0.330689      0.276300
Pb       7.58133     11.47191     13.10278         0.297021      0.136219     -0.441795
Pb      11.53216      3.88665      4.39061         0.106039     -0.425567      0.206392
Pb      11.29644      3.79792     17.27765         1.106338     -0.137373      1.204841
Pb      11.42256      0.14162      4.26132         0.265829     -0.080735      0.990220
Pb      11.70716      0.02509     17.30052        -0.471390      0.238525      0.687646
Pb      11.64376      3.74279      8.72686        -0.346761      0.243040     -0.342851
Pb      11.49243     15.24212      8.62323         0.262546      0.516519     -0.109486
Pb      11.41586      3.90394     12.94488         0.784787     -0.136266      1.040472
Pb      11.44080     15.28802     13.04599         0.267233      0.449924      0.087360
Pb      11.50898      7.71533      4.34686        -0.116290      0.234894      0.605364
Pb      11.46887      7.62355     17.35908         0.004864      0.041583      0.226377
Pb      11.43017      7.58342      8.68135         0.045117     -0.191437      0.258925
Pb      11.61862      7.74565     12.87609        -0.256226     -0.865242      1.059112
Pb      11.40561     11.55164      4.40752         0.448549     -0.613014      0.545637
Pb      11.65428     11.56760     17.43016        -0.691515     -0.209898      0.280187
Pb      11.36736     11.51907      8.75545         0.642198      0.209627      0.065802
Pb      11.37920     11.51543     13.00518        -0.013782      0.256038      0.447182
Ti       1.86710      1.86399      2.37762         0.206933      0.951460     -0.118389
Ti       1.94434      1.84365     15.39970        -0.393174      0.619084     -0.711472
Ti       1.93156     13.42464      2.30980        -0.221865     -0.018876      0.160669
Ti       1.92706     13.39478     15.55916        -1.083448     -0.427836     -0.746221
Ti      13.43685      1.94410      2.32080        -0.477266      0.969282     -0.362121
Ti      13.45428      1.94782     15.35083         0.087372      0.369065     -0.711668
Ti      13.34898     13.44704      2.36915         0.712522     -0.522982     -0.730326
Ti      13.45540     13.41800     15.39853         0.943507      0.421025      0.173879
Ti       2.08279      1.94798      6.67492        -0.829589      0.134472     -0.923510
Ti       1.91290     13.49425      6.58346         1.047427     -0.494699     -0.393346
Ti      13.48388      1.82632      6.75463        -0.504173      0.523033     -0.805019
Ti      13.43210     13.35795      6.73741        -0.490444      0.365577      0.229460
Ti       1.96284      1.87016     11.16123         0.890586      0.160097     -1.220909
Ti       1.86889     13.41132     11.06529        -0.629723      0.438687     -1.247741
Ti      13.46558      1.92705     11.04517        -0.378530     -0.336885     -1.191529
Ti      13.37339     13.41469     10.96591         1.275428      0.830826     -0.793913
Ti       1.93772      5.74544      2.19612        -1.488420     -0.695054      0.051478
Ti       1.89313      5.72915     15.33220        -0.105444      0.983242      0.513525
Ti      13.31239      5.80288      2.29974         0.989058     -0.593630      0.884610
Ti      13.48519      5.77126     15.43206        -0.510781      0.000336     -1.361395
Ti       1.96498      5.84738      6.78855        -0.822240     -1.062202     -0.373215
Ti      13.44697      5.74780      6.83193        -0.316690     -0.742793     -1.161259
Ti       1.95135      5.78226     11.06057        -0.525150     -0.042522     -1.356501
Ti      13.40254      5.77178     10.96650         0.230099     -0.427801     -1.725705
Ti       1.81313      9.52743      2.36941        -0.834404      0.042969     -0.445443
Ti       1.83739      9.63638     15.33956         0.810015     -1.275578      1.306816
Ti      13.31810      9.62757      2.32818         0.231339     -0.270004      0.895824
Ti      13.37705      9.63692     15.49763        -0.042862     -0.864950     -1.053606
Ti       1.84300      9.59899      6.62546         0.438073     -0.220614      0.594238
Ti      13.40225      9.58204      6.79878        -0.764323      0.846269     -0.862376
Ti       1.84591      9.64212     10.94461         0.991675     -0.267450      0.349249
Ti      13.36723      9.66776     10.90429         1.024901     -0.694447     -1.207684
Ti       5.75610      1.94346      2.22655         0.497992     -0.055269     -0.569356
Ti       5.81012      1.82539     15.52971         0.937020      1.395950     -1.598265
Ti       5.80015     13.29550      2.37618         0.263404      1.556440     -1.619591
Ti       5.71889     13.41946     15.51734         0.607950     -0.847682      1.783068
Ti       5.81768      1.83492      6.67073        -0.061051      0.633052     -0.724330
Ti       5.76825     13.35229      6.69990        -0.631634      0.752924      0.396340
Ti       5.76004      1.91736     11.03408        -0.244115     -0.388697      0.226255
Ti       5.64795     13.52779     11.06706         1.564423     -1.494660     -0.765940
Ti       5.67776      5.75214      2.31024         1.741256      0.076389     -0.308179
Ti       5.67313      5.77314     15.43170         0.962415      0.262941     -0.886645
Ti       5.78234      5.73898      6.67394         0.429240     -0.762369     -0.481129
Ti       5.77053      5.80597     11.04981         0.310055      0.076098      0.649154
Ti       5.63350      9.57175      2.28986         1.442131     -0.349100     -0.226031
Ti       5.70551      9.60918     15.48506         0.257399     -0.623617     -0.402181
Ti       5.67639      9.58737      6.73098         0.411363     -0.671827      0.268424
Ti       5.79434      9.58768     11.09982        -1.476924      1.304461     -0.222631
Ti       9.62673      1.87764      2.28542         0.111269      1.404026     -0.292886
Ti       9.59356      1.87958     15.41193        -0.142758      0.737245     -1.987265
Ti       9.62789     13.38327      2.34844         0.465736      0.127646     -0.811183
Ti       9.65297     13.45500     15.52216        -0.656795     -0.656646     -1.576351
Ti       9.60376      1.95683      6.62721         1.283197      0.025926     -1.224296
Ti       9.50211     13.48272      6.72977         1.679897     -0.610214     -1.271959
Ti       9.59251      1.95990     11.11488        -0.750973     -1.070751     -0.507427
Ti       9.58221     13.52924     11.05660        -0.743779     -0.494606      0.901053
Ti       9.56051      5.71337      2.43563         0.202978     -0.643154     -1.411847
Ti       9.63982      5.70200     15.33888        -0.406162      0.000158     -0.852239
Ti       9.53745      5.70732      6.66939         1.005442      0.496673      1.727688
Ti       9.52414      5.65581     11.03760         0.740129      1.403305     -1.149496
Ti       9.54316      9.51338      2.31222         0.312216      0.665576     -1.318533
Ti       9.56562      9.55335     15.39365         0.078500      0.723091      0.244078
Ti       9.60541      9.54460      6.91679        -0.045086      0.075663     -1.961341
Ti       9.58013      9.56816     11.11374        -0.366501     -0.153986     -1.068521
O       1.68735      1.92245      0.63460         0.581190      0.037132     -0.670846
O       2.12601      1.94492     13.61408        -0.512850     -0.752667      1.145447
O       1.74905     13.35367      0.52435         0.548275      0.049422      1.178254
O       1.98942     13.32090     13.80501         0.121860      0.229140     -0.696578
O      13.54630      2.05779      0.50745        -0.280392     -0.562336      0.911675
O      13.57890      1.98579     13.60038        -0.089232     -0.417257     -0.496629
O      13.29799     13.48669      0.57453         0.113180     -0.005494      0.422939
O      13.46166     13.29613     13.66139        -0.215150      0.224756     -0.412229
O       2.11803      2.00391      4.88775         0.081853     -0.500521      0.912390
O       1.86606     13.48133      4.79640         0.333591      0.012393      0.351745
O      13.35834      1.94496      4.97895         0.139110     -0.224685     -0.283294
O      13.43509     13.35050      4.97332         0.128011      0.095263     -0.343490
O       1.98763      1.87442      9.35236        -0.252898      0.244018      0.219618
O       1.83905     13.38756      9.23122         0.601619      0.157556      1.157483
O      13.49473      1.83050      9.19595        -0.019422      0.236461      1.909512
O      13.44882     13.56602      9.18664        -0.058572     -0.255569      0.987376
O       1.88627      5.79576      0.42924         0.178798     -0.317798      0.764302
O       1.82933      5.72746     13.57092         0.474514      0.579326     -0.650727
O      13.41413      5.67972      0.59995        -0.180889      0.174204     -1.781696
O      13.41408      5.80449     13.64360         0.186984      0.022436      0.758693
O       1.85982      5.72766      5.04993         0.316082      0.351687     -0.773677
O      13.56899      5.73638      4.95041        -0.121820      0.035280      1.269292
O       2.04632      5.97235      9.19648        -0.534154     -0.904028      1.707290
O      13.25751      5.77338      9.12048         0.956387      0.063829      0.882878
O       1.75958      9.60365      0.57247         0.568661      0.002501      1.078361
O       1.81507      9.62128     13.61424         0.038654      0.021979     -1.411135
O      13.32063      9.68810      0.61136        -0.077819     -0.195071     -2.043458
O      13.41820      9.64424     13.70111         0.223367      0.172749      0.250194
O       1.82241      9.56131      4.86644         0.184328      0.017552     -0.558986
O      13.34452      9.69114      5.00894         0.200224     -0.185080      0.407363
O       1.85134      9.59510      9.18346         0.054280      0.058909      0.423099
O      13.34874      9.52618      9.12493         0.377962     -0.002200      1.423338
O       5.90679      2.01529      0.40962        -0.949715     -0.192024      1.504080
O       5.82738      1.78927     13.65864        -0.410373     -0.017658      1.589174
O       6.00457     13.21774      0.60829        -0.742917      0.402648      0.039887
O       5.69824     13.56961     13.80156        -0.173627     -0.148654     -1.355421
O       5.74549      1.88431      4.83914         0.209153     -0.107004      1.186141
O       5.85571     13.50607      4.96019        -0.199437     -0.457411     -0.503488
O       5.78258      1.85210      9.27144         0.261836      0.258560      0.348279
O       5.54554     13.44170      9.33246         0.421079     -0.069553     -0.892329
O       5.74059      5.72635      0.56209        -0.033072     -0.060593     -0.428786
O       5.72779      5.79871     13.64598        -0.337806      0.038174      0.556078
O       5.77232      5.65596      4.88437        -0.149199      0.612957      0.238478
O       5.85727      5.88654      9.31448        -0.329838     -0.251191     -0.598670
O       5.61166      9.66823      0.53836         0.002319     -0.060422     -0.294539
O       5.71831      9.53060     13.72666         0.068798      0.387606     -0.351851
O       5.78075      9.48307      4.96751        -0.202958      0.345055     -0.149001
O       5.71519      9.71589      9.35308         0.335013     -0.668105     -0.341459
O       9.79338      1.91900      0.50965        -0.555098     -0.213044      0.056989
O       9.46567      1.96491     13.60570         0.299781     -0.214901      0.572668
O       9.74312     13.44044      0.55197        -0.446398     -0.029970      0.604475
O       9.68030     13.52371     13.67770         0.076927     -0.076885      0.834145
O       9.76648      2.12243      4.79732        -0.868634     -0.933478      1.437111
O       9.69609     13.46428      4.94398        -0.680760     -0.451156      0.276417
O       9.36970      1.77246      9.35897         0.636564      0.476736      0.325694
O       9.58760     13.48968      9.33783        -0.062174      0.210246     -1.406526
O       9.64839      5.77849      0.60023        -0.318995      0.180450      0.897581
O       9.77063      5.49834     13.60014        -0.685387      1.068157     -0.216916
O       9.71516      5.88282      4.96737        -0.672226     -0.493686     -1.428787
O       9.50133      5.72123      9.25626         0.119413     -0.078615      0.496095
O       9.63250      9.34854      0.49018        -0.163794      0.677429      1.473031
O       9.56079      9.70952     13.62617         0.076666     -0.292395     -0.200885
O       9.57934      9.49898      5.12603        -0.193620      0.450110     -0.366597
O       9.69918      9.59919      9.30095        -0.836872     -0.064604      1.523120
O       3.83751      1.97732      2.63961         0.511806     -0.385893     -0.187700
O       3.93830      1.78998     15.94462        -1.484298      0.590247     -0.443838
O       3.95840     13.36776      2.74836        -2.076995      0.231033     -0.121778
O       3.75236     13.48558     15.98388         2.254160     -0.256752      0.081982
O       0.00109      1.80593      2.85615        -0.583834      0.379716     -0.384846
O       0.04954      1.98147     15.79235         0.739901     -0.716445     -0.185047
O      15.33482     13.62806      2.73308         0.106810     -1.101253     -0.520671
O      15.35475     13.48389     15.81301        -0.694866     -0.273812      0.236483
O       3.99034      1.98435      7.19436        -1.155995     -0.318594     -0.555978
O       3.80314     13.41903      7.04080         0.490360     -0.278726      0.014411
O       0.03211      1.80656      6.94384         1.376031      0.617888      0.573739
O       0.13899     13.39720      7.06558        -1.778001      0.376058     -0.076427
O       3.85940      1.81349     11.46810         0.409068      0.290334      0.297260
O       3.85005     13.52317     11.43265        -1.463542     -0.069235      0.887621
O       0.04164      1.91176     11.49238        -0.792373      0.132310     -0.075788
O      15.35813     13.44467     11.43195        -0.325754     -0.507626      0.226114
O       3.84521      5.88811      2.58038        -1.183513     -0.617273      0.407999
O       3.82444      5.88877     15.92221        -0.089131     -1.185115     -0.491587
O      15.30410      5.77807      2.69825         0.842770     -0.244329     -0.068152
O       0.04655      5.80356     15.78814        -0.791989      0.302087      0.009333
O       3.89504      5.76422      7.15557        -0.303561     -0.267230     -0.393855
O       0.02892      5.72532      7.17638        -0.409568      0.186669      0.235382
O       3.86438      5.90425     11.35779        -0.722437      0.105206      0.481718
O      15.35838      5.63016     11.27887         0.679909      0.909941      0.158360
O       3.79957      9.47319      2.74830        -1.142195      0.588193      0.187820
O       3.75604      9.72746     15.86491         0.322315     -0.723571     -0.198060
O      15.21438      9.64149      2.62921         1.916127     -0.270100      0.462451
O       0.01550      9.65440     15.91009        -1.284689     -0.576038     -0.360147
O       3.81225      9.48039      7.02620        -0.268153      0.540781     -0.109148
O      15.31651      9.64884      7.11468         0.247699     -0.681561     -0.225428
O       3.85054      9.46669     11.40932        -0.933074      0.202673      0.232438
O      15.29239      9.71172     11.36282         0.181931     -0.450099     -0.000221
O       7.66621      1.89295      2.58600         0.044491      0.189505      0.351676
O       7.73633      1.96447     15.91156        -0.831861     -0.266736     -0.238422
O       7.74129     13.42623      2.77368        -0.012771     -0.098770      0.083955
O       7.69481     13.43475     15.80216        -0.376916     -0.310684      0.156069
O       7.76408      1.84322      7.15005        -1.222956      0.322782     -0.498287
O       7.67759     13.37581      7.07901        -0.977568     -0.196013      0.262257
O       7.61838      1.95602     11.53372         0.130089      0.197180     -0.448548
O       7.70814     13.46067     11.48254        -0.920487     -0.127701      0.177821
O       7.68129      5.77178      2.79367        -0.058442      0.121139      0.004941
O       7.66876      5.72725     15.78248        -0.083862      0.480007     -0.019738
O       7.67724      5.74521      7.04790         0.089367      0.246444     -0.094035
O       7.70337      5.71289     11.44894        -0.765075      0.207005      0.340855
O       7.51036      9.70272      2.61345         1.781154     -0.575622      0.458937
O       7.66724      9.61177     15.90244         0.149196     -0.127813     -0.390279
O       7.68123      9.53348      7.28350        -1.121430      0.315553     -0.329686
O       7.69943      9.61756     11.50390         0.397316      0.334277     -0.015953
O      11.50683      2.06997      2.80320         0.704046     -0.727040     -0.657407
O      11.51327      2.04088     15.54576         0.423808     -0.794587      0.709838
O      11.53050     13.27456      2.80831        -0.884664      1.018109     -0.271622
O      11.51259     13.55207     15.84101         0.569330     -0.168940     -0.151968
O      11.48959      1.89042      7.09663        -0.438141     -0.461332      0.301478
O      11.48409     13.36379      7.13611        -0.021667      0.372551     -0.001568
O      11.54878      2.09053     11.46084         0.173266     -1.363694     -0.591758
O      11.52949     13.46308     11.42923        -0.178779      0.024902      0.130062
O      11.49458      5.77409      2.84714        -0.710172      0.059782     -0.359304
O      11.45019      5.56276     15.85583         1.291811      1.518049     -0.446295
O      11.56042      5.65320      7.10318        -0.665260      0.035172     -0.133765
O      11.57685      5.75060     11.30057        -1.343486      0.116914      0.634501
O      11.48570      9.64070      2.81630        -1.408224     -0.331861     -0.242471
O      11.49746      9.59174     15.78389        -0.215629      0.166734      0.158489
O      11.46406      9.75964      7.27571         0.725548     -0.924047     -0.588961
O      11.53683      9.59201     11.41580        -0.690261      0.211792      0.129359
O       1.96145      3.81787      2.75246        -0.344980      1.005530     -0.637590
O       1.91313      3.88894     15.58667         0.995294     -1.296168      0.893535
O       2.02592     15.33590      2.60747         0.068385     -0.702210      0.256925
O       1.96573     15.27839     15.86083        -0.320106      2.095561      0.092354
O      13.44584      3.85593      2.75464         0.140230     -0.442416     -0.093148
O      13.51865      3.83186     15.66950         0.134705      0.675585      0.611822
O      13.29765      0.06613      2.66185         0.065690     -0.692022      0.164140
O      13.46185      0.04066     15.76224         0.045970     -0.203765     -0.022286
O       1.99118      3.83230      7.14293        -0.044603     -0.435467      0.157058
O       2.04109      0.01915      7.10049        -0.086913      0.163206     -0.456673
O      13.39703      3.70331      7.17599         0.772804      1.320648      0.062334
O      13.49043     15.31035      7.06281        -0.315315     -0.762562      0.139565
O       1.95619      3.81956     11.54932         0.425939      0.739712     -0.588395
O       1.86212     15.29860     11.37917         0.171783      0.313789      0.634635
O      13.45519      3.91815     11.34284         0.242964     -1.702634      0.080440
O      13.44263     15.32502     11.48858        -0.057230      0.715458      0.009502
O       1.85808      7.60034      2.63572         0.029771      0.918772      0.256971
O       2.02512      7.72635     15.84144        -0.826524      0.010690     -0.276708
O      13.37042      7.65855      2.70727         0.069961      0.597605      0.169913
O      13.37424      7.71617     15.79634         0.278732     -0.595614      0.294248
O       1.90438      7.69566      7.08706        -0.243966      0.411703     -0.033096
O      13.26234      7.69160      7.02755         0.762861     -0.519183      0.151001
O       1.76001      7.75193     11.41112         0.447869     -0.700610     -0.118764
O      13.43728      7.62146     11.43425         0.509022      1.572678     -0.329581
O       1.90066     11.46982      2.84394         0.228940      0.297798     -0.806578
O       1.84347     11.41364     15.86726         0.198178      1.870330      0.370706
O      13.34747     11.49578      2.69257         0.710012      1.295096      0.211359
O      13.39286     11.55371     15.84528         0.136126     -0.070734      0.152111
O       1.85037     11.49420      7.06282         0.801963     -0.090905     -0.567116
O      13.39409     11.52823      7.26359         0.545998      0.243308     -0.441961
O       2.04320     11.51668     11.40571        -0.323151     -0.206031     -0.064989
O      13.44112     11.49883     11.30445        -0.391821      0.396938      0.253405
O       5.75271      3.88077      2.76467        -0.001705     -0.612234     -0.414737
O       5.79114      3.80314     15.72884        -0.759748      0.449676      0.218310
O       5.80349     15.33870      2.61057        -0.368459      0.410801      0.105139
O       5.89161     15.34336     16.02631        -0.765814     -0.734068     -0.402489
O       5.87297      3.83362      7.11012        -0.269385     -0.311743      0.003664
O       5.77176     15.35111      7.12837        -0.061211     -0.547496     -0.300357
O       5.69768      3.96092     11.43212        -0.184669     -1.372469     -0.007785
O       5.80475     15.34044     11.39556        -0.084907      0.765091      0.551553
O       5.77143      7.67072      2.70266        -0.108778      0.031852      0.201340
O       5.66745      7.73624     15.77024         0.194632     -0.862916      0.664370
O       5.72509      7.57437      7.12830         0.489856      1.251482     -0.173155
O       5.87168      7.77046     11.62655        -0.433166     -1.457559     -0.702123
O       5.68463     11.49502      2.72582         0.025059     -1.074696      0.797540
O       5.65879     11.49112     15.79926         0.488351      1.384726      0.246292
O       5.66996     11.44634      7.17071         0.412156      0.564197     -0.550880
O       5.61573     11.51718     11.51578         0.855335      0.201274      0.434646
O       9.58678      3.80589      2.66284        -0.267150      1.107720      0.205939
O       9.58022      3.82100     15.71676        -0.565890     -0.094107      0.668803
O       9.65502      0.02572      2.68644        -0.014094     -1.038462      0.022736
O       9.44541      0.05900     15.79433         1.066892     -1.167439      0.085485
O       9.58373      3.80256      7.07607        -0.258272      0.179718      0.077913
O       9.54644     15.35492      6.96552         0.186850     -0.199059      0.420566
O       9.61586      3.83911     11.38753        -0.300359     -0.370414      0.133455
O       9.57570      0.07083     11.52188         0.504131     -0.612123      0.199937
O       9.56345      7.72810      2.77524        -0.172111     -0.438916      0.139127
O       9.61698      7.64396     15.73347        -0.017172     -0.129719     -0.076727
O       9.63720      7.65278      7.13437        -0.068125     -0.864102      0.363858
O       9.54693      7.60816     11.48482         0.454400      1.308955     -0.153674
O       9.53407     11.46300      2.75387         0.083000      0.303418     -0.150491
O       9.61885     11.54138     15.74735         0.122423     -0.086282      0.346088
O       9.55234     11.45876      7.31119        -0.384464      1.309298     -0.532188
O       9.50846     11.63227     11.52799         0.680252     -1.567756     -0.168462
