  # total energy = -7866.16178681 
CRSYTAL
PRIMVEC
    15.010000000000000    0.0000000000000000    0.0000000000000000
     0.0000000000000000   15.010000000000000    0.0000000000000000
     0.0000000000000000    0.0000000000000000    16.400000000000000
PRESSURE
18.5911 18.5131 8.81772 -0.070282 0.137059 0.051707
PRIMCOORD
320 1
Pb       3.63934      3.81542      4.02748         0.342900     -0.137756      0.552944
Pb       3.83335      3.67475      0.07213        -0.134201      0.005588     -0.527330
Pb       3.70255     14.99987      4.06594        -0.068278     -0.034088      0.565037
Pb       3.61268     14.98686      0.02762         0.701649      0.268228     -0.610922
Pb       0.02663      3.67908      4.06166        -0.336598      0.040645      0.444230
Pb       0.07891      3.80663      0.06951        -0.732202     -0.468958     -0.642083
Pb       0.08358     14.96427      3.98440        -0.558531      0.093903      0.679749
Pb      14.93819     15.00568      0.00532        -0.142853      0.000955     -0.472671
Pb       3.92653      3.71048      8.23207        -0.694881      0.351842     -0.198715
Pb       3.77698     14.92581      8.26989         0.057575     -0.057011     -0.014574
Pb       0.09800      3.68580      8.18748        -0.691298      0.618862     -0.663358
Pb       0.10471      0.05625      8.29601        -0.789669     -0.794787     -0.930741
Pb       3.70745      3.80002     12.33439         0.443872     -0.381317     -0.139025
Pb       3.81842      0.03311     12.26575        -0.297675      0.314620     -0.077248
Pb      14.96766      3.63703     12.29857         0.105507      0.062764      0.543799
Pb      14.93223     14.99302     12.33380        -0.365282      0.208277     -0.056996
Pb       3.62959      7.50343      4.02146         0.198762      0.355019      0.251934
Pb       3.70427      7.41899      0.00677         0.252439      0.083588      0.079024
Pb      14.89365      7.41916      4.08205         0.194951      0.432026      0.254945
Pb       0.02730      7.48963      0.02347        -0.423488     -0.016221     -0.620741
Pb       3.67635      7.44662      8.23507         0.503813      0.174726     -0.248286
Pb      14.93760      7.43075      8.17073         0.135564      0.193622      0.768854
Pb       3.80471      7.55129     12.31613         0.058970     -0.401446     -0.064202
Pb       0.13137      7.49235     12.36726        -0.548858     -0.211962      0.031654
Pb       3.67862     11.34601      3.97985        -0.232019     -0.572298      0.393997
Pb       3.71381     11.27468      0.05407         0.238234     -0.093119     -0.608186
Pb      14.90487     11.32081      4.10973         0.180940     -0.513103     -0.051008
Pb      14.96333     11.14201     16.36668         0.104752      0.671457      0.127149
Pb       3.72802     11.18476      8.22448         0.063038      0.282489      0.058573
Pb      14.89938     11.21825      8.33305         0.179010      0.055537     -0.593447
Pb       3.75586     11.28606     12.34180         0.510752      0.060461      0.277492
Pb      14.99708     11.20694     12.28721        -0.046914      0.259430      0.808032
Pb       7.49755      3.61892      4.13403         0.030418      0.441569      0.382344
Pb       7.46617      3.79935     16.37735         0.022897     -0.123077     -0.000712
Pb       7.42693      0.01629      4.02732         0.472281     -0.463850      0.760780
Pb       7.49397      0.03154      0.07398        -0.236434      0.326019     -0.620881
Pb       7.55868      3.80795      8.30256        -0.097694     -0.097389     -0.416911
Pb       7.52033     14.81247      8.30346         0.163265      0.305615     -0.266734
Pb       7.57166      3.63285     12.26033        -0.445246      0.563435      0.307078
Pb       7.49866     15.00556     12.33151         0.267551     -0.796203      0.024672
Pb       7.44085      7.52011      4.07162        -0.165732      0.167072      0.081277
Pb       7.45647      7.53453      0.11403         0.071426     -0.258372     -0.359345
Pb       7.46356      7.59594      8.23937        -0.265938     -0.218790     -0.445383
Pb       7.50486      7.32352     12.28554        -0.207511      0.858065      0.817601
Pb       7.40671     11.33374      4.07105        -0.006374     -0.421711     -0.048292
Pb       7.51974     11.23756      0.09654        -0.141280     -0.273729     -0.949229
Pb       7.45186     11.20337      8.34246         0.018361      0.153939     -0.436982
Pb       7.50379     11.16142     12.43986         0.050360      0.228015      0.169499
Pb      11.35153      3.70306      4.07474        -0.284439      0.196572      0.022359
Pb      11.14111      3.70869     16.39016         0.749040      0.484156     -0.108961
Pb      11.23195      0.04357      4.11135        -0.102146     -0.441302      0.270341
Pb      11.10663     14.92966      0.03812         0.488982      0.610429     -0.054340
Pb      11.21641      3.76753      8.15904         0.180658      0.014707      0.369882
Pb      11.29037     14.97774      8.23840        -0.267241     -0.313095     -0.328628
Pb      11.31765      3.73022     12.36612         0.305398     -0.356393     -0.452563
Pb      11.23940     14.96811     12.23112         0.322421      0.523488      0.411256
Pb      11.03911      7.41945      4.09227         0.967571      0.705924      0.155272
Pb      11.20346      7.51867     16.37219         0.476408     -0.153239      0.200320
Pb      11.16524      7.51105      8.25604         0.256074      0.128736      0.195100
Pb      11.28248      7.51797     12.36179         0.618273     -0.100505      0.186333
Pb      11.20929     11.31348      4.17322         0.658602     -0.626698      0.109097
Pb      11.19408     11.30513      0.10211         0.390339     -0.761466     -0.755664
Pb      11.15516     11.16138      8.19715         0.046519      0.244691      0.143490
Pb      11.26822     11.28072     12.33299        -0.440052     -0.002004      0.008726
Ti       1.94617      1.83845      2.00830        -1.751956      0.515969      0.232506
Ti       1.86205      1.90681     14.45248        -0.073195     -0.279454     -0.171781
Ti       1.82972     13.10967      2.03537        -0.255629     -0.783887     -0.028083
Ti       1.88352     13.13428     14.47815        -0.711128      0.051470     -0.538247
Ti      13.10402      1.86822      2.06978         0.981828      0.174122     -0.565300
Ti      13.10343      1.91239     14.45420         1.116840      0.301823     -0.925969
Ti      13.04867     13.10250      2.04838         0.010842     -0.767559      0.115320
Ti      13.08362     13.15832     14.42349         1.242681      0.566449     -0.703836
Ti       1.89773      1.88379      6.20531        -0.812721     -0.347301     -0.562660
Ti       1.79760     13.12202      6.28385        -0.764738     -0.052670     -0.663391
Ti      13.08547      1.87428      6.17622         0.414598     -0.788858      0.330976
Ti      13.04628     13.06202      6.25657         0.010419      2.039326      0.336682
Ti       1.91019      1.83619     10.21148         0.367659      0.213016      0.818452
Ti       1.87460     13.07520     10.37497         0.085792      0.608113     -0.902168
Ti      13.16787      1.91129     10.23763        -1.573382     -0.905476      2.984205
Ti      13.13731     13.08632     10.27112         0.001751      1.062212     -0.207878
Ti       1.80251      5.59948      2.09515         1.314965      0.462662      1.060111
Ti       1.91934      5.60776     14.44383        -0.743209      0.007258     -0.237050
Ti      13.14001      5.64393      2.03130        -0.161518     -0.881198     -0.427858
Ti      13.13205      5.61760     14.48288         0.408931      0.001463     -0.729319
Ti       1.82514      5.65942      6.26915        -0.520247     -1.250883     -0.614333
Ti      13.02214      5.64809      6.21572         1.065466     -1.708141      0.376425
Ti       1.92790      5.56393     10.30973        -0.042593      0.603360     -0.822126
Ti      13.21884      5.63058     10.31380        -1.464075     -0.114506      0.388849
Ti       1.81015      9.36801      2.02255         0.106638      0.392033      0.839238
Ti       1.94963      9.41797     14.36826        -0.596891     -0.781241      1.220375
Ti      13.14005      9.33728      2.11310        -1.113005      0.889401      0.178213
Ti      13.16692      9.43847     14.51640        -0.974145     -1.091513     -0.712950
Ti       1.82301      9.34737      6.28588         0.936169      1.110759     -0.623276
Ti      13.12633      9.31586      6.23040        -0.525690      0.707325     -1.480450
Ti       1.85712      9.37436     10.29277         0.244638     -1.110278      0.237487
Ti      13.10055      9.37629     10.45354         0.223618     -0.617314     -1.363789
Ti       5.64674      1.86508      2.15145        -0.112676      0.948919     -1.002327
Ti       5.60874      1.85737     14.38555         0.206433     -0.135249     -0.343937
Ti       5.62430     13.17242      1.96789        -0.753181     -0.001364      0.880166
Ti       5.62393     13.14567     14.45711         0.195570     -1.239009     -1.171087
Ti       5.64419      1.85539      6.26608        -0.117265     -0.911770     -0.020547
Ti       5.53067     13.11661      6.23762         0.451878      0.609826      0.539057
Ti       5.66305      1.86061     10.29491        -0.965238      0.464284      0.287259
Ti       5.64202     13.05491     10.41432         0.679588     -0.203129      0.137177
Ti       5.62875      5.66865      2.14006        -0.383233      0.014644     -0.527443
Ti       5.63842      5.59842     14.41028         0.230188      0.047429     -0.074075
Ti       5.60065      5.63910      6.17330        -0.277946      0.765389      0.608122
Ti       5.72076      5.65847     10.27654        -0.931668     -1.426088      0.299720
Ti       5.59072      9.46167      2.06968         0.326617     -1.005243      0.453895
Ti       5.62469      9.31858     14.52595         0.798743      0.838991     -0.722482
Ti       5.58782      9.44222      6.09874         0.350838     -0.900839      0.274466
Ti       5.58525      9.35225     10.39718         1.110180      0.414919      0.584527
Ti       9.36660      1.90774      2.09797         0.412140     -1.121737      0.573133
Ti       9.38345      1.86903     14.47058        -0.256728      0.058489      0.042740
Ti       9.33237     13.05473      2.12545        -0.221246      1.412808      0.740111
Ti       9.34922     13.09882     14.51010        -0.111766     -0.495573     -2.129586
Ti       9.33816      1.84382      6.28570        -0.335017     -0.552156     -0.598571
Ti       9.23850     13.01896      6.16037         0.798080      1.696518      0.715938
Ti       9.30278      1.84742     10.30354         2.313638     -0.478578     -0.029879
Ti       9.43162     13.09244     10.30327        -1.323848     -0.336910     -0.025954
Ti       9.39498      5.65011      2.11737        -0.551550     -0.869800     -1.013923
Ti       9.37602      5.64805     14.40562         0.089457     -0.948265     -0.265351
Ti       9.30396      5.62110      6.20787        -0.593774     -0.271525     -0.297192
Ti       9.50753      5.64076     10.40803        -0.761073     -0.915051     -0.843469
Ti       9.35823      9.41719      2.07844         0.123356     -0.885341      1.224619
Ti       9.35862      9.32576     14.41073         0.507193      0.176743      0.833517
Ti       9.33548      9.35158      6.16827        -0.226085      0.977856      0.164608
Ti       9.34405      9.32204     10.41132        -0.146979      1.552371     -0.508480
O       1.83711      1.73836      0.20448        -0.194822      0.514091      1.090161
O       2.06088      1.89292     12.65855        -0.469412     -0.273135     -0.712297
O       1.96637     13.11978      0.22209        -0.742550     -0.154886      0.607778
O       1.88648     13.03548     12.64523         0.155482      0.515436     -0.680166
O      13.20430      1.85503      0.22332        -0.155296     -0.227155      1.095975
O      13.20115      1.86569     12.58969        -0.173375      0.280268      0.249962
O      13.11488     13.09938      0.22679        -0.503992      0.199121      0.354517
O      13.12966     13.10692     12.56467         0.007864      0.073567      0.663305
O       2.00175      1.88178      4.35223        -0.356869     -0.415103     -0.163450
O       1.94140     13.09458      4.30528        -0.469858      0.132382      1.011810
O      13.11701      1.85172      4.31178        -0.478484     -0.172101      0.324518
O      13.02211     13.21005      4.45144         0.251025     -0.257899     -0.969417
O       1.85195      1.93721      8.38476         0.039868     -0.429846      0.949359
O       1.82444     13.19907      8.53586         0.128776     -0.158673     -0.500043
O      13.11475      1.84622      8.53119         0.006438      0.221029     -1.887691
O      13.13155     13.09908      8.44213         0.038175     -0.429073      0.536186
O       1.82925      5.59034      0.33381         0.380928      0.228725     -1.098176
O       1.85006      5.48941     12.63209         0.223562      0.573443     -0.231408
O      13.26836      5.56230      0.23283        -0.344534     -0.046035      0.754071
O      13.00800      5.57225     12.63153         0.527304      0.519403      0.074544
O       1.89385      5.65938      4.39196        -0.430815      0.091042      0.540453
O      13.19952      5.48385      4.43825        -0.449315      0.908426     -0.699933
O       1.87844      5.67601      8.44103        -0.005225     -0.630838      1.039685
O      13.03324      5.67418      8.53495        -0.039633     -0.359964     -0.342609
O       1.76014      9.31438      0.24078         0.381381      0.522995     -0.189027
O       1.80439      9.38419     12.60429         0.651309     -0.263522     -1.299391
O      13.20400      9.37119      0.29133         0.102104      0.395554     -0.439164
O      13.12357      9.39248     12.65109        -0.271289     -0.324091     -0.094524
O       1.84218      9.40633      4.49851        -0.032625     -0.067308     -0.688029
O      13.07702      9.30261      4.31837         0.301896     -0.117211      1.635202
O       1.91480      9.29755      8.51815        -0.096895      0.240385     -0.451544
O      13.11374      9.47082      8.57856         0.114396     -0.065948     -0.213719
O       5.70562      1.82775      0.31856        -0.067181      0.312433      0.321501
O       5.68496      1.90221     12.53241        -0.535218     -0.638849      0.746881
O       5.72630     13.11230      0.22432        -0.303316      0.078596     -0.827852
O       5.69143     13.08972     12.56207        -0.575808      0.550714      0.499899
O       5.55181      1.81956      4.40134         0.338144     -0.204375      0.067967
O       5.50885     13.20661      4.43845         0.108251     -0.201198     -0.605390
O       5.60741      2.04103      8.51654         0.154547     -0.582118     -0.781412
O       5.58635     12.96153      8.62057         0.153735      0.189350     -1.014396
O       5.36243      5.45158      0.32132         1.038628      0.791580      0.596862
O       5.67653      5.66261     12.61532        -0.008332     -0.099217     -0.368523
O       5.67756      5.68899      4.38505        -0.078452     -0.121919     -0.749731
O       5.67090      5.70815      8.46735        -0.375326     -0.659185     -0.091739
O       5.75940      9.45900      0.24970        -0.528886     -0.210802      0.136682
O       5.65024      9.28373     12.71991        -0.471295     -0.274969     -0.681829
O       5.67759      9.44498      4.29100        -0.361586      0.020261      0.472065
O       5.61660      9.42289      8.63161         0.217548     -0.074814     -0.924807
O       9.31769      1.87934      0.30822         0.017338     -0.164619     -0.415967
O       9.38345      1.80397     12.70886        -0.217014      0.227530     -1.281474
O       9.32222     13.00171      0.31495         0.257056      0.605847     -1.138758
O       9.46518     13.14036     12.62034        -0.111889     -0.138893      1.211686
O       9.46585      1.81336      4.42849        -0.682330      0.390820     -0.081506
O       9.30893     13.02830      4.30736        -0.193315     -0.057451      0.752972
O       9.36327      1.78463      8.52167        -0.113752      0.291281     -0.285574
O       9.35447     13.09065      8.48815        -0.216673     -0.071767     -0.279536
O       9.39976      5.64707      0.27124        -0.082192     -0.095353      0.964946
O       9.36247      5.58275     12.52020         0.317787      0.052195      0.993743
O       9.35490      5.62546      4.35032        -0.242933     -0.233106      0.297672
O       9.48451      5.69930      8.54575        -0.462246     -0.119265     -0.281452
O       9.27338      9.27010      0.32224         0.028358      0.147700     -0.946389
O       9.43373      9.40908     12.65475         0.469814     -0.478011     -1.424842
O       9.49411      9.50558      4.37971        -0.751866     -0.452949     -0.526381
O       9.29213      9.33736      8.55558         0.326649      0.018536      0.191753
O       3.75992      1.97908      2.18258        -0.041144      0.110750      0.621120
O       3.74466      1.80471     14.76818         0.557584     -0.373117      0.063014
O       3.71583     12.90017      2.18248         0.601213      0.907723      0.393137
O       3.75231     13.05299     14.78048        -0.294650      0.910342     -0.164714
O      14.99449      1.87712      2.42461         0.284325     -1.445652     -0.385669
O       0.01841      2.07400     14.59242        -0.045775     -0.290817      0.327528
O      14.90921     13.18318      2.27325         1.056208      0.223866      0.415286
O       0.00271     12.89914     14.77740        -0.216411      1.146231     -0.427343
O       3.67790      1.77323      6.53050         1.919796      0.097485      0.157542
O       3.67115     13.26104      6.54138         0.320299     -0.471931     -0.052467
O      14.89424      1.93945      6.51390         1.413465     -0.799750     -0.148259
O      14.91453     13.22723      6.45961         1.174477     -0.221143     -0.057753
O       3.81986      1.90455     10.55496        -1.298178      0.507190      0.108207
O       3.77527     12.83303     10.46386        -0.787378      0.142293      0.969421
O       0.03863      1.75834     10.64946         0.748561     -0.219270     -0.506662
O       0.03243     13.33387     10.49392        -0.644326     -0.453734      0.557753
O       3.69875      5.62244      2.50405         0.465321     -0.411741     -0.446795
O       3.81405      5.68897     14.63565        -1.933189      0.152069      0.193843
O       0.02167      5.62696      2.44874        -0.603417      0.725599      0.027422
O       0.00130      5.53043     14.67434         0.273662     -0.152713      0.033266
O       3.68215      5.59658      6.50339         0.999135      0.122949     -0.111907
O      14.89613      5.65926      6.59686         1.364089     -0.238250     -0.271045
O       3.79645      5.46694     10.66283         0.057387      0.006919     -0.450986
O      15.00553      5.77909     10.56019         1.403261     -0.122842      0.257727
O       3.72463      9.42833      2.38862        -0.239307      0.597824     -0.231503
O       3.77173      9.13658     14.71661        -0.867446      0.522215      0.113897
O      14.95075      9.35922      2.41380         1.624750     -0.284007      0.218316
O       0.02127      9.41297     14.54725        -0.406365      0.165667      0.704254
O       3.79115      9.31728      6.51284        -1.083300      0.221556      0.066534
O      14.99336      9.37139      6.53110        -0.776716     -0.222023      0.101648
O       3.77235      9.54796     10.64247        -1.077773     -0.161344      0.218932
O       0.01712      9.18181     10.62181        -0.122046      0.087659      0.117187
O       7.52014      1.68943      2.40409        -0.272403      0.429099      0.246703
O       7.47185      1.88029     14.67545         0.190937      0.074375      0.300147
O       7.42092     13.25796      2.37542         0.223999      0.155270      0.312162
O       7.49168     13.00433     14.66463         0.523055      0.076501      0.225635
O       7.46320      1.98152      6.61748         0.005739     -0.350572     -0.559896
O       7.39754     12.97799      6.55892         0.738219      0.151491     -0.185824
O       7.46874      1.71998     10.63637         1.327231     -0.382861      0.109992
O       7.56293     13.28123     10.52056        -0.769692     -0.201980      0.398445
O       7.50679      5.91043      2.15465        -0.562599     -0.999829      0.564361
O       7.46781      5.56376     14.79653         0.767399     -0.132780     -0.108965
O       7.43709      5.68416      6.47261         0.821769     -0.407684      0.278219
O       7.53963      5.73628     10.57582         0.482166      0.171585     -0.146139
O       7.48965      9.26875      2.45379        -0.249980     -0.023499     -0.233924
O       7.53623      9.48321     14.63986        -0.650283     -0.391368      0.432464
O       7.46762      9.30523      6.54252         0.005091      0.765045     -0.298956
O       7.50579      9.19089     10.80643         0.270264     -0.002815     -0.718543
O      11.23029      1.98745      2.23781         0.770020      0.070141      0.519330
O      11.28294      1.76145     14.69126        -1.819548      0.018530      0.577090
O      11.12922     12.87750      2.39602         1.327273     -0.014736     -0.419274
O      11.24169     13.17449     14.75992         0.029165      0.188952      0.129185
O      11.19607      1.92207      6.48344         0.266681      0.059717      0.230458
O      11.13398     13.09827      6.52624        -0.053206     -0.191046     -0.257319
O      11.26588      2.07164     10.63680        -0.269534     -0.786447     -0.333045
O      11.26852     13.00336     10.40166         0.899979     -0.297820      0.749193
O      11.30259      5.52732      2.29032        -0.657112     -0.042319      0.517404
O      11.25880      5.61562     14.79294        -1.198936      0.278967     -0.270004
O      11.14619      5.50505      6.40307         1.005197      0.488386      0.145162
O      11.28770      5.38941     10.55577         0.274896      0.155451      0.421091
O      11.21727      9.43460      2.26658        -0.055306      0.203025      0.172785
O      11.27118      9.26386     14.84844        -0.190087      0.326286     -0.447554
O      11.23068      9.36654      6.40016         0.620872      0.220505      0.760592
O      11.25873      9.44515     10.52151        -0.402192      0.543222      0.674507
O       1.72200      3.69500      2.39104         0.959007      0.455816     -0.411941
O       1.95631      3.75258     14.85800         0.436648      0.429608     -0.266918
O       1.93630     14.96925      2.28225         0.071057      0.463870      0.405801
O       1.76056     15.00739     14.80715         0.097923     -0.544952     -0.733106
O      13.30407      3.77990      2.34680        -0.770450     -1.133972      0.036276
O      12.96543      3.73091     14.67727         0.188582      0.876118      0.273195
O      12.86831     14.90206      2.30074         0.335579      1.880853      0.110979
O      13.24921      0.09003     14.50023         0.497462     -2.915006      1.039251
O       1.78103      3.72389      6.42757         0.149300      0.878533      0.157672
O       1.80638     15.00838      6.39587        -0.434942     -0.035466      0.301704
O      13.16014      3.75214      6.53658        -0.791635     -0.070197      0.067505
O      12.98301     14.99051      6.63224         0.261771      0.986695     -0.696945
O       1.86572      3.71382     10.55714        -0.379379     -0.452581     -0.027130
O       2.08287     14.97569     10.45182         0.138559      0.691685      0.700202
O      13.26666      3.71609     10.68578         0.270048      0.887279     -0.630041
O      13.02546     14.94908     10.63448         0.087692      0.914110     -0.393782
O       2.00628      7.54756      2.25977        -0.775150     -1.164308      0.534849
O       1.73299      7.49871     14.72935         0.432566     -0.582333     -0.300640
O      13.14451      7.48394      2.27776        -0.178018     -0.469920      0.600165
O      13.12551      7.47092     14.85192         0.451506      0.689084     -0.614023
O       1.81930      7.48802      6.55622         0.100147      0.261188     -0.234778
O      13.15474      7.46282      6.61206        -0.802211      0.937862     -0.586844
O       2.11632      7.43731     10.50116        -0.261867      0.697026      0.812835
O      12.94326      7.51633     10.56638         0.084152     -0.844894      0.492624
O       1.78099     11.24140      2.31900        -0.246153      0.154153      0.174055
O       1.94401     11.23107     14.69621         0.339686     -0.445951      0.280972
O      13.14861     11.22610      2.41065         0.024975      0.512474      0.140250
O      13.07161     11.31358     14.66847        -0.460070     -1.360527      0.270772
O       1.73180     11.25765      6.66631         0.700244      0.252439     -0.499518
O      13.15615     11.24998      6.38121        -0.112503     -1.416051      0.334038
O       1.67839     11.21346     10.51836        -0.029261      0.083474      0.191400
O      13.24372     11.26078     10.70119         0.295167     -0.177577     -0.354499
O       5.76167      3.80089      2.43994         0.011980     -0.753173      0.130927
O       5.52260      3.68880     14.67559         0.169194      0.574072      0.283521
O       5.52414      0.04069      2.32843        -0.468152     -1.232161      0.355718
O       5.63620     14.95536     14.65698         0.046635      1.167732      0.180189
O       5.59761      3.67666      6.45106        -0.402401      1.928242     -0.005165
O       5.81311     14.95769      6.70539        -1.162274      0.449208     -0.561696
O       5.86862      3.75080     10.59306        -0.470835      0.192975     -0.204904
O       5.51275     14.95366     10.47936        -0.184176      0.263673      0.392514
O       5.55236      7.58614      2.25120        -0.399913     -1.186247      0.307924
O       5.69711      7.44674     14.79289         0.196122      0.073258      0.367033
O       5.70365      7.54883      6.47829        -0.805003     -0.567628     -0.181603
O       5.51601      7.46215     10.59393        -0.201298      0.592099      0.314798
O       5.67879     11.29455      2.25044         0.441452      0.630545      0.624816
O       5.48817     11.25796     14.57780         0.058472     -0.856986      0.581128
O       5.53808     11.28424      6.56643        -0.090761     -0.871777     -0.372089
O       5.85345     11.16688     10.79174        -0.214563      0.615479     -0.450907
O       9.27582      3.71027      2.47182        -0.351268      1.051497     -0.280536
O       9.34155      3.77649     14.82661         0.316079     -0.878018     -0.524995
O       9.51607     14.92466      2.35746        -0.243736      1.161982     -0.170696
O       9.26321     14.99932     14.76773         0.222735     -0.557046      0.373281
O       9.24349      3.74839      6.57338         0.386370      0.592549     -0.168513
O       9.18817     14.98590      6.46221         0.276721     -0.563628     -0.039254
O       9.25132      3.69199     10.56229        -0.442359      0.549417     -0.018063
O       9.54917     14.94187     10.64307        -0.275174      1.474730     -0.143505
O       9.42704      7.46284      2.45743         0.346948      1.062147     -0.027193
O       9.30974      7.43338     14.63587         0.039173      0.723708      0.314023
O       9.41350      7.54079      6.40924        -0.069896     -1.475657      0.167918
O       9.58315      7.50659     10.60984         0.055877     -0.766996      0.324796
O       9.02276     11.24696      2.26583         0.430468     -0.819260      0.265256
O       9.45767     11.14624     14.69563         0.421829      2.052329      0.505165
O       9.28453     11.22117      6.55306         0.278778     -0.411100     -0.093914
O       9.33235     11.24195     10.67499        -0.267462     -0.594760     -0.132017
