  # total energy = -7881.45549578 
CRSYTAL
PRIMVEC
    15.6000000000000000    0.0000000000000000    0.0000000000000000
     0.0000000000000000   15.6000000000000000    0.0000000000000000
     0.0000000000000000    0.0000000000000000    17.640000000000000
PRESSURE
-3.03499 -3.21988 -1.84702 0.0516 0.078892 -0.015691
PRIMCOORD
320 1
Pb       3.96078      3.88573      4.31733        -0.347388      0.231220      0.526869
Pb       3.95295      3.88518     17.56005         0.017948     -0.475373      0.404059
Pb       3.78996     15.50066      4.35610         0.376425      0.145928      0.730490
Pb       3.85686      0.03445      0.00245         0.271367     -0.280695     -0.539077
Pb      15.51717      3.84839      4.30994         0.067204     -0.037448      0.080105
Pb       0.05149      3.84598     17.52219        -0.479451     -0.123714      0.437863
Pb       0.01421     15.58629      4.32804        -0.465170      0.181884      0.159382
Pb      15.54864     15.57052      0.00792        -0.170262      0.239642      0.153262
Pb       3.84728      3.93375      8.71865         0.379567      0.087754      0.539591
Pb       3.88437      0.00916      8.77650         0.168679     -0.325627     -0.183630
Pb       0.00184      3.90322      8.81709        -0.205826      0.456841     -0.030654
Pb      15.52367      0.08318      8.70969         0.449100     -0.510611      0.350246
Pb       3.90858      3.91031     13.17729        -0.001934     -0.638842      0.575268
Pb       3.96073      0.06731     13.16115        -0.055378      0.015897      0.316116
Pb       0.03946      3.94462     13.17752        -0.699553     -0.066425      0.089080
Pb      15.51316     15.53593     13.20064        -0.106446     -0.106332      0.399210
Pb       3.95291      7.75319      4.30980        -0.319068     -0.075893      0.607433
Pb       3.94364      7.73374     17.52099         0.295684      0.344790      1.036179
Pb      15.58508      7.58466      4.29643         0.139365      0.728625      0.654697
Pb       0.03033      7.74122     17.51272        -0.315058      0.250585      0.617232
Pb       3.81154      7.73682      8.73213         0.028656      0.238699      0.065145
Pb      15.59516      7.83534      8.71470        -0.096557     -0.128285     -0.070265
Pb       3.92743      7.77466     13.15510        -0.382141      0.747647      0.688226
Pb       0.01283      7.73203     13.13787         0.016826      0.245839      0.317779
Pb       3.89787     11.61984      4.30187        -0.022827      0.189843      0.286873
Pb       3.83349     11.65860     17.54622        -0.004781      0.569147      0.078587
Pb       0.06495     11.76846      4.35209        -0.247784     -0.285271      0.241754
Pb       0.02934     11.68165     17.54579        -0.252020     -0.501168      0.094321
Pb       3.84789     11.78309      8.83948         0.009874      0.032885     -0.486469
Pb      15.59801     11.63861      8.70563        -0.472177     -0.192634      0.374223
Pb       3.89638     11.65351     13.16409        -0.198895     -0.401011      0.381116
Pb      15.57461     11.76590     13.17745        -0.364235     -0.189244      0.447791
Pb       7.73555      3.81261      4.27541        -0.097350     -0.564952      0.671809
Pb       7.82429      3.90702     17.61706        -0.041383      0.014336      0.580261
Pb       7.71330     15.54806      4.37737         0.406156      0.260376      0.262991
Pb       7.74677     15.59628     17.54402        -0.321591     -0.181195      0.145633
Pb       7.73444      3.91342      8.78506         0.183840     -0.319644     -0.021788
Pb       7.72101      0.07681      8.75467         0.249152     -0.729778      0.208958
Pb       7.70191      3.86500     13.24958         0.298381     -0.267166      0.009709
Pb       7.80788      0.06254     13.09307        -0.174096     -0.355201      0.076441
Pb       7.76096      7.66666      4.30692        -0.034480      0.846086      0.387388
Pb       7.77829      7.71369     17.48909        -0.104405      0.684898      0.970846
Pb       7.75716      7.81376      8.78111         0.165584      0.558331      0.063052
Pb       7.85016      7.69503     13.20165        -0.259250      0.723778      0.573754
Pb       7.72011     11.53942      4.26908         0.135455      0.222390      0.655369
Pb       7.79873     11.62786     17.42191        -0.004906      0.051621      0.680012
Pb       7.76292     11.69313      8.61337         0.485879      0.221580      0.398530
Pb       7.72999     11.71023     13.11079         0.475666     -0.045006      0.606679
Pb      11.75705      3.80390      4.23304        -0.098828     -0.132103      0.426472
Pb      11.58191      3.82509     17.58182         0.496918     -0.222827      0.086821
Pb      11.72044     15.58613      4.27233        -0.002970      0.068758      0.404608
Pb      11.74591     15.59906     17.59690        -0.246459      0.000672      0.466664
Pb      11.70751      3.87710      8.70968        -0.093210      0.557192      0.478361
Pb      11.59310      0.02609      8.74334         0.391667     -0.474151      0.488341
Pb      11.68128      3.85027     13.13670         0.429969     -0.024170      0.095909
Pb      11.64083      0.06351     13.17840         0.346142      0.096177      0.034616
Pb      11.62355      7.79935      4.38150         0.197185     -0.149135     -0.076851
Pb      11.70653      7.78741     17.61097         0.004318      0.149720      0.104192
Pb      11.71654      7.80771      8.74712         0.325812      0.046517      0.310080
Pb      11.65587      7.82444     13.09459         0.079182     -0.074774      0.169350
Pb      11.66750     11.54155      4.40353         0.469062      0.211251      0.514234
Pb      11.58026     11.74146     17.63594        -0.025268     -0.181123      0.093949
Pb      11.58647     11.78525      8.90280         0.182925     -0.427672     -0.476704
Pb      11.67756     11.69707     13.29186         0.218560      0.103239     -0.157043
Ti       1.95589      1.92343      2.35678        -1.052275      0.326728     -0.656867
Ti       1.95484      1.96887     15.61291         0.108784     -1.440724      3.133985
Ti       1.97272     13.64880      2.43435         0.104897     -0.471876      0.394861
Ti       1.83654     13.73543     15.61797         0.512379     -0.544497      0.797310
Ti      13.66248      1.92521      2.37937        -0.453761     -1.139506     -0.566266
Ti      13.59770      1.87666     15.59576         0.184036      0.724242      0.064640
Ti      13.64199     13.56375      2.45601         0.203523      0.609710     -1.025390
Ti      13.54694     13.54816     15.78733         0.280733     -0.120160     -2.337047
Ti       1.97326      1.98265      6.88329         0.107363     -0.450057     -1.513818
Ti       1.96664     13.62427      6.82913        -0.312909     -0.026807     -0.744841
Ti      13.69577      2.01522      6.85737        -0.191302     -0.441135     -0.543542
Ti      13.72181     13.65182      6.77673        -0.732732     -1.106734      0.742147
Ti       1.89064      1.95480     11.29668         0.853690     -0.652023     -1.453306
Ti       1.98957     13.69305     11.28446        -1.705531     -0.016359     -1.747297
Ti      13.70482      1.91248     11.19010        -1.180946      0.614409     -0.705123
Ti      13.64128     13.59621     11.20044        -0.273318      0.064089      1.997877
Ti       1.90750      5.78915      2.40534        -0.177615      0.416052     -0.316419
Ti       1.97131      5.86615     15.69180        -0.838429     -0.327135     -1.581541
Ti      13.56432      5.93462      2.37231         0.459494     -1.007678      1.427213
Ti      13.56532      5.80566     15.64009         0.215298     -0.998112     -0.598221
Ti       1.93264      5.80583      6.79086        -0.246394      1.834339     -0.776745
Ti      13.61338      5.84791      6.76315         0.317882      0.324235      0.294344
Ti       1.96608      5.83420     11.27804        -0.710859      0.176278     -1.588958
Ti      13.59825      5.86980     11.22852        -0.225028     -1.028357     -1.114284
Ti       1.90042      9.70554      2.38192        -0.261202      0.074816     -1.242965
Ti       2.01008      9.71329     15.68787        -0.783984      0.762805     -1.003834
Ti      13.68245      9.72895      2.32863        -0.253233     -0.179031      0.337363
Ti      13.61180      9.61135     15.56835         0.828687      0.898946      0.706844
Ti       1.95768      9.76647      6.71648        -0.618351     -1.065829      1.511258
Ti      13.55257      9.76785      6.78430         0.534036      0.426203      1.215743
Ti       1.93553      9.78458     11.19809        -0.304919      0.126229      1.079361
Ti      13.66246      9.71226     11.31488        -0.669684      0.568404     -1.928389
Ti       5.72725      1.90607      2.43472         1.939415     -0.191073     -1.439394
Ti       5.89752      1.98150     15.66148        -0.775799     -1.715814     -1.264446
Ti       5.87122     13.69034      2.45908         0.073559     -0.564704     -0.227366
Ti       5.77229     13.65307     15.55095        -0.012021      0.810464     -0.687473
Ti       5.85746      1.93951      6.84808         0.179560      0.247224     -1.350825
Ti       5.85236     13.66300      6.73346         0.371707      0.029340      2.020998
Ti       5.82745      1.96599     11.18394        -0.546539     -0.349874     -0.211922
Ti       5.89121     13.58709     11.24224         0.546352      1.880708     -2.411443
Ti       5.83661      5.87183      2.46076        -0.446014     -0.292740     -1.752461
Ti       5.87284      5.78093     15.61529         0.235853      0.720887     -1.177919
Ti       5.86973      5.87798      6.94014        -0.888879     -0.558044     -2.403961
Ti       5.81046      5.82513     11.37609         0.001083     -0.230544     -1.818918
Ti       5.82108      9.78518      2.29749         0.765252     -0.751954      0.177976
Ti       5.82740      9.72949     15.68723         0.609992      0.272498     -1.750997
Ti       5.83070      9.77711      6.82845        -0.210926     -0.283087     -0.768281
Ti       5.85353      9.67977     11.25855         0.118184      0.479657     -0.490571
Ti       9.67059      1.87222      2.38007         0.582995     -0.740514     -0.385821
Ti       9.69924      1.93096     15.67546         0.416539     -0.337747     -0.967563
Ti       9.80467     13.57179      2.54696        -0.298887      0.402597     -0.300134
Ti       9.66579     13.66358     15.62064         0.056376     -0.428801      0.292452
Ti       9.76119      1.93378      6.89995        -0.942591     -0.200138     -1.277758
Ti       9.79968     13.62221      6.78783        -0.444185     -0.323539      2.194201
Ti       9.68937      2.05153     11.24381         0.924024     -0.893196     -0.487082
Ti       9.85367     13.61419     11.36065        -1.219991      0.219664     -1.748452
Ti       9.66880      5.73486      2.50727         0.755206      0.642361     -1.213405
Ti       9.74160      5.81229     15.67978        -0.187657      0.245569     -0.559074
Ti       9.73704      5.82960      6.78189         0.311709     -0.201534      0.097076
Ti       9.69399      5.89488     11.26291         1.059469     -0.766195     -1.229189
Ti       9.80919      9.71454      2.42758        -1.132735      0.069335     -1.026416
Ti       9.81299      9.65793     15.58108        -0.883101      1.266591      0.224969
Ti       9.78526      9.65499      6.81127        -0.217423      1.652700      0.655970
Ti       9.65315      9.73448     11.26507         1.384056      0.816247     -1.633022
O       1.89550      1.94533      0.60710         0.360661     -0.108020      0.339276
O       2.00709      1.84209     13.96493        -0.071549      0.125840     -3.178354
O       1.96211     13.60060      0.73428        -0.044361     -0.020617     -1.086980
O       1.65357     13.87218     13.90741         0.471991     -0.602099     -0.608023
O      13.65898      1.78861      0.64242        -0.203406      0.254950     -0.639310
O      13.46801      1.93991     13.84647         0.454332     -0.038164      0.494412
O      13.56931     13.68113      0.68013         0.202139     -0.146153     -0.164238
O      13.52792     13.55414     13.96281         0.234837      0.034912      1.592793
O       2.00295      2.05897      5.14343        -0.108445      0.092892     -0.481791
O       2.04202     13.39007      5.06258        -0.295503      0.590897      0.166356
O      13.71912      2.00108      5.09960        -0.149400     -0.140281      0.131935
O      13.73379     13.49993      5.05543         0.020922      0.352601     -0.996812
O       1.91794      1.96638      9.50677        -0.128076     -0.039196      0.362006
O       1.94879     13.66525      9.43896         0.452891     -0.097608      1.180394
O      13.77555      1.89258      9.36638        -0.073704      0.229857      1.014877
O      13.64757     13.52646      9.50958        -0.044438      0.286709     -0.802256
O       1.82512      5.89319      0.64534         0.506243     -0.360582     -0.204448
O       1.84412      5.89413     13.88065         0.488382     -0.151349      1.211948
O      13.76056      5.97528      0.69655        -0.552555     -0.148644     -2.140277
O      13.51670      5.76813     13.89152         0.430491     -0.010336      0.308958
O       2.04882      5.87146      5.03439        -0.483957     -0.222845     -0.431384
O      13.57444      5.68982      5.04623         0.072284      0.153013     -1.280481
O       1.91600      5.83535      9.49030         0.220066     -0.077216      1.161313
O      13.60999      5.80819      9.45248        -0.001767      0.192182      0.414880
O       1.98861      9.85124      0.57924         0.012767     -0.522186      1.137701
O       2.16324      9.53425     13.95357        -0.328219      0.443021     -0.176888
O      13.63077      9.57125      0.62257        -0.283410     -0.118720     -1.229588
O      13.58101      9.62547     13.84704         0.074776      0.114387     -0.953522
O       1.76978      9.61262      5.02507         0.315813      0.431671     -1.483922
O      13.54366      9.82502      5.07522         0.041053     -0.178353     -1.160553
O       1.88434      9.94322      9.50107         0.430178     -0.354017     -0.624893
O      13.69443      9.74278      9.53510        -0.172385     -0.154367      0.759374
O       5.85836      1.79761      0.65614        -0.155623      0.070809      0.270352
O       5.87177      2.01745     13.86715         0.140579      0.057339      0.505595
O       5.88661     13.80661      0.74343        -0.014665     -0.037410     -0.741919
O       5.84016     13.73262     13.75622        -0.285087     -0.464266      0.285298
O       5.85118      1.91144      5.04894        -0.143618      0.370455      0.238043
O       5.79719     13.61608      5.04812        -0.046308      0.198966     -1.972276
O       5.84074      2.09755      9.42971        -0.028301     -0.320301     -0.323535
O       5.79637     13.75915      9.35929        -0.300826     -0.543400      2.137643
O       5.84693      5.84146      0.69080         0.042432      0.074575      0.007257
O       5.81869      5.80417     13.79837         0.179817     -0.279157      0.860282
O       5.79979      5.81787      5.10942         0.294163      0.142755      0.616846
O       5.69365      5.68461      9.60895         0.435725      0.462369      0.185172
O       5.86881      9.69639      0.55199        -0.153603      0.071615     -0.495670
O       5.77193      9.81677     13.89535        -0.144302     -0.080470      0.518993
O       5.93797      9.69457      5.09496        -0.397952     -0.084663     -0.180483
O       5.83103      9.70944      9.53463         0.136388      0.079634     -0.948776
O       9.75269      1.92015      0.62599        -0.243731      0.135844     -0.499299
O       9.70286      2.00730     13.91912        -0.073119     -0.173494     -0.318277
O       9.86590     13.52619      0.83140        -0.315203     -0.276480     -1.025888
O       9.71604     13.53901     13.91516         0.169528      0.314573     -1.357603
O       9.74907      1.83230      5.15679        -0.026921      0.092042     -0.226938
O       9.85342     13.69886      5.11826        -0.109955      0.037088     -2.228325
O       9.62716      1.99889      9.49664         0.209783      0.307618     -0.151982
O       9.83574     13.53996      9.58512         0.149859     -0.007779      0.441360
O       9.58619      5.77466      0.74820         0.270895     -0.090211     -0.126843
O       9.67284      5.91908     13.96005         0.001545     -0.032636     -0.975218
O       9.66207      5.89959      5.02859         0.139854     -0.285874     -0.098192
O       9.82944      5.80159      9.52297        -0.498888      0.196565     -0.065197
O       9.73780      9.96231      0.67554         0.261832     -0.651789      0.150400
O       9.69115      9.70332     13.86265         0.322824     -0.281527     -0.642658
O      10.00067      9.68989      5.09642        -0.511269     -0.256527     -1.368900
O       9.66887      9.95161      9.48797        -0.270916     -0.650313      0.271557
O       3.89929      1.98201      2.66525        -1.142423     -0.244760      0.556616
O       3.96320      1.84586     16.04431        -0.523672      0.561606      0.321178
O       3.88391     13.66195      2.88501         0.079516     -0.500288     -0.040356
O       3.83549     13.71250     16.00998         0.340111      0.075607     -0.099405
O      15.54409      1.76655      2.69918         1.163350      0.685346      0.661574
O       0.04150      2.01879     16.05376        -0.969872     -0.487530     -0.485671
O       0.08350     13.68231      2.88407        -0.406508     -0.452729     -0.032345
O      15.51307     13.58860     16.17649         0.384361      0.086689     -0.217699
O       3.90579      2.00738      7.22070        -0.041474     -0.070461      0.385513
O       3.86770     13.65001      7.15015         0.218313      0.098068      0.682352
O       0.03500      2.02715      7.23597        -0.362632     -0.154636      0.252025
O       0.00064     13.66907      7.17242         0.490919     -0.327072      0.122855
O       3.88554      1.87851     11.64333        -0.394987      0.144619      0.087000
O       3.75975     13.63006     11.65419         1.825568      0.005528      0.064524
O      15.59352      1.96044     11.70341         0.154640      0.058498     -0.124351
O      15.50715     13.59152     11.74892         0.194472      0.362734     -0.460276
O       3.87573      5.85895      2.80351         0.158256     -0.491086     -0.068855
O       4.00406      5.85533     16.10215        -1.072372     -0.615221     -0.390741
O      15.51484      5.82736      2.79942         0.543698     -0.383779      0.346265
O       0.03189      5.76360     16.01213         0.135526      0.152036     -0.055896
O       3.84092      5.81911      7.18451         0.865678      0.149216      0.709065
O      15.52347      5.96083      7.06692         0.670110     -0.263306      0.501500
O       3.87124      5.80639     11.74578        -0.383950      0.508723     -0.199975
O      15.52572      5.68283     11.62574         1.245264      0.778653      0.355829
O       3.96689      9.56237      2.78379        -0.940390      0.695442     -0.176660
O       3.92444      9.73539     16.09803         0.095249     -0.324806      0.268051
O      15.55334      9.75243      2.58402         1.412633     -0.651338      0.678980
O       0.03997      9.69626     15.97085        -0.419953     -0.175953      0.084265
O       3.83601      9.70282      7.05612         0.844359      0.444174      0.540807
O      15.57481      9.63631      7.29505        -0.168619      0.713460     -0.466038
O       3.93556      9.76136     11.63250        -0.737483      0.229288      0.091483
O      15.58163      9.78164     11.56761         0.188922     -0.220817      0.738164
O       7.77638      1.82605      2.73710        -0.008171      0.109855      0.498576
O       7.82214      2.01035     16.03390        -0.351974     -0.449329      0.440826
O       7.79092     13.62760      2.95124         0.116814     -0.224481     -0.284979
O       7.73805     13.63284     15.88769        -0.044631      0.024228      0.734565
O       7.77691      2.00184      7.19521        -0.219501     -0.232390      0.592083
O       7.76755     13.69334      7.21724         0.169589      0.054137     -0.172558
O       7.73966      1.97932     11.58996         0.434510      0.298181      0.390864
O       7.83861     13.70985     11.58895        -0.988739     -0.294720      0.338864
O       7.73941      5.68344      2.83346         0.393441      0.441797      0.393110
O       7.78296      5.88711     16.06404        -0.390243     -0.711065     -0.090607
O       7.78723      6.00537      7.24762         0.478713     -0.410757      0.131902
O       7.74476      5.89532     11.67358        -0.035531     -0.654012     -0.099309
O       7.78309      9.77181      2.77758         0.121107     -0.321097      0.146287
O       7.76202      9.71258     15.91606        -0.067663      0.296094      0.622601
O       7.76128      9.60268      7.11104         0.182251      0.041096      0.724002
O       7.81349      9.65877     11.69639        -1.323245      0.412830      0.171398
O      11.68312      1.79195      2.74024        -0.109307      0.620472      0.391568
O      11.63131      1.93561     16.08008         0.472631     -0.097936      0.062058
O      11.80721     13.58788      2.82543        -1.050236     -0.200867      0.530150
O      11.61005     13.62754     16.10205         0.492920     -0.083110      0.201027
O      11.64783      1.93460      7.22803         1.180539      0.173974      0.252971
O      11.67582     13.65157      7.22978         0.161357      0.144269      0.218109
O      11.66904      1.94411     11.58010         0.229825      0.304092      0.047355
O      11.68555     13.69174     11.75979         0.542476     -0.549392     -0.104061
O      11.66891      5.79422      2.79849        -0.500857     -0.203080     -0.002918
O      11.59831      5.82569     16.03902         0.900604      0.081263      0.568848
O      11.70613      5.83599      7.19450        -1.084033     -0.431685      0.172482
O      11.69018      5.81788     11.58899        -0.276156      0.358747      0.502072
O      11.69106      9.66299      2.74467         0.154936      0.104895      0.361858
O      11.73641      9.58822     15.92221        -0.644120      0.343638      0.431207
O      11.64915      9.90758      7.21725         0.461222     -0.720691      0.518768
O      11.60270      9.65713     11.49186         0.846303     -0.108371      0.991315
O       1.81278      3.85826      2.74596         0.540213     -0.132164      0.175144
O       2.03006      3.79425     16.04845         0.235352      2.148745      0.008840
O       1.97281      0.01901      2.83788         0.176702     -0.162265     -0.036156
O       1.85121     15.53599     16.18383         0.205078      0.774560     -0.224097
O      13.61277      3.77611      2.72711         0.084223      1.008654      0.320037
O      13.53973      3.82347     16.07277         0.253998      0.506571      0.134564
O      13.66834     15.53441      2.86472         0.093469     -0.215230      0.349799
O      13.67516     15.56878     16.07035        -0.297779      0.293446     -0.118577
O       1.93771      4.02293      7.18214        -0.424960     -1.821418      0.685976
O       1.90224      0.02357      7.00376         0.327880     -0.193492      0.845670
O      13.68700      3.90362      7.17987        -0.250795     -0.407447      0.538987
O      13.70704     15.52898      7.30671        -0.488425      1.090617     -0.575531
O       2.07601      3.85865     11.62506        -0.849526      0.367505      0.397876
O       1.86907     15.57352     11.73798         0.034185      0.305918     -0.405832
O      13.67774      3.85267     11.55902        -0.332253     -0.229992      0.397318
O      13.58978      0.03602     11.70906         0.299301     -0.427671     -0.595365
O       1.92922      7.68941      2.84138        -0.287109      0.987953     -0.224267
O       1.98187      7.78617     16.11343         0.283084     -1.154333     -0.142881
O      13.58584      7.74514      2.80937         0.091156      0.685915      0.413550
O      13.59210      7.67408     15.96405         0.338712      0.487595      0.452784
O       2.00141      7.81451      7.27808        -0.489831     -0.148003      0.057310
O      13.51622      7.79271      7.09752        -0.056335      0.330100      0.402902
O       1.83538      7.81042     11.64591         0.642239     -0.564789     -0.319043
O      13.62201      7.76324     11.65693         0.346274     -0.036675      0.129606
O       1.96798     11.61682      2.84433         0.235598     -0.220176     -0.123940
O       2.01542     11.70551     15.94659        -0.329135     -0.075206      0.237014
O      13.71249     11.61945      2.63518        -0.176110      0.601973      0.554679
O      13.63432     11.60232     16.08533        -0.255746      0.029247     -0.048857
O       1.91286     11.65172      7.23748         0.168792      0.485948     -0.026479
O      13.59463     11.69948      7.23341         0.632609      0.148318      0.082479
O       1.88322     11.69547     11.74186         0.411148      0.065108     -0.037640
O      13.53620     11.68175     11.74048         0.164201     -0.104475     -0.132536
O       5.83799      3.83207      2.64476        -0.071319      0.139528      0.995679
O       5.91355      3.83208     16.10367        -0.390145      1.501938     -0.064804
O       5.77393     15.53196      2.91036         0.024254      0.967613      0.182589
O       5.85875      0.03816     15.91287         0.416417     -0.602289      0.682515
O       5.90321      3.92207      7.20676        -0.212821      0.312591      0.416464
O       5.88729      0.03549      7.16135        -0.594975      0.037573      0.273274
O       5.72329      3.83756     11.71325         0.642745      0.899393      0.117260
O       5.82237      0.04187     11.53029         0.005672     -0.419136      0.399092
O       5.95452      7.77050      2.78743        -0.254217     -0.330141      0.080826
O       5.88365      7.72064     15.95153        -0.391420      0.259232      0.208572
O       5.74998      7.74496      7.37487         0.225411      0.378971      0.002504
O       5.80507      7.84219     11.62692         0.073879     -1.411427      0.287145
O       5.82486     11.64614      2.69433        -0.271684      0.387660      0.403430
O       5.74259     11.76556     16.02335         0.260052     -0.560083     -0.094474
O       5.87924     11.71951      7.05336        -0.363806     -0.559501      0.621847
O       5.88353     11.76492     11.48229        -0.302426     -0.668021      0.592761
O       9.73414      3.77918      2.76065        -0.032064      0.388527      0.500380
O       9.66545      3.90755     15.98957         0.289046     -0.023376      0.657106
O       9.79564     15.50691      2.74774        -0.232324      0.263709      0.569543
O       9.71079     15.57144     16.00463        -0.130537      0.235909      0.170264
O       9.65241      3.90256      7.19621         0.370845      0.834762      0.160834
O       9.71224      0.00892      7.40024        -0.084287     -0.147797     -0.385111
O       9.80197      3.94222     11.70793        -1.016320     -0.158494     -0.094402
O       9.81205      0.02484     11.61420        -0.625741      0.096260      0.424837
O       9.68455      7.73598      2.76254         0.095793      0.010597      0.344956
O       9.69166      7.84413     16.08455         0.262888     -0.896258      0.156570
O       9.88966      7.83156      7.24317        -0.549937     -1.240541      0.113349
O       9.67383      7.79546     11.58649         0.051650     -0.691172      0.421614
O       9.78719     11.61354      2.97069        -0.083407      0.327565     -0.046879
O       9.67743     11.68673     16.02489         0.668621     -0.389207      0.120305
O       9.65022     11.64988      7.15040        -0.006776      0.735351      0.197454
O       9.74070     11.62019     11.74851        -0.043291      0.967226      0.224531
