  # total energy = -7888.87388369 
CRSYTAL
PRIMVEC
    15.3600000000000000    0.0000000000000000    0.0000000000000000
     0.0000000000000000   15.3600000000000000    0.0000000000000000
     0.0000000000000000    0.0000000000000000    17.440000000000000
PRESSURE
-0.434616 -0.479442 -6.46298 -0.057972 -0.012508 0.012431
PRIMCOORD
320 1
Pb       3.81819      3.82161      4.33681        -0.032556      0.143315     -0.189993
Pb       3.83569      3.82098     17.40556        -0.056016     -0.095759     -0.209103
Pb       3.82257     15.34313      4.32919        -0.145915     -0.139088     -0.041031
Pb       3.82978     15.34677     17.41256        -0.095887     -0.015109     -0.298764
Pb      15.33638      3.82081      4.33596         0.092067     -0.055334     -0.020470
Pb      15.34803      3.82092     17.41944         0.196096      0.098945     -0.244759
Pb      15.34326     15.33856      4.33112        -0.126238      0.017100     -0.081397
Pb      15.32263     15.33929     17.41450         0.174950      0.000640     -0.231238
Pb       3.81986      3.83037      8.68236        -0.159663     -0.084662     -0.203744
Pb       3.82090     15.33868      8.70365         0.005414      0.009319     -0.126238
Pb      15.31728      3.82397      8.68549         0.142083      0.069214     -0.240416
Pb      15.33671     15.35714      8.69166        -0.148745      0.002949     -0.438708
Pb       3.82742      3.81684     13.04448        -0.074563     -0.123117     -0.239405
Pb       3.81805     15.33081     13.04578         0.162834     -0.139822      0.035715
Pb      15.33719      3.81055     13.05456        -0.008570      0.134209     -0.122303
Pb      15.34152     15.34674     13.03716        -0.083932     -0.076157      0.122019
Pb       3.82700      7.66729      4.32447        -0.048631     -0.271794     -0.121997
Pb       3.81518      7.66234     17.42124        -0.159954     -0.063770     -0.398796
Pb      15.35542      7.66040      4.32861         0.110451      0.057526     -0.316261
Pb      15.34257      7.67510     17.40489        -0.053204     -0.086100     -0.185242
Pb       3.83355      7.65435      8.69204         0.078091      0.081112     -0.105629
Pb      15.33997      7.65822      8.69120        -0.085697     -0.191955     -0.108755
Pb       3.82360      7.65971     13.05519        -0.416938      0.211815     -0.434166
Pb      15.34655      7.66367     13.05349         0.153701     -0.038968     -0.298004
Pb       3.80836     11.49554      4.32881         0.033103      0.148121     -0.282363
Pb       3.83624     11.48530     17.40744         0.021458      0.159420     -0.469527
Pb      15.35347     11.51217      4.31863         0.014112     -0.022956     -0.269289
Pb      15.33754     11.49720     17.40833         0.120798     -0.037802     -0.129780
Pb       3.81720     11.51115      8.69654         0.141216     -0.114923     -0.167501
Pb      15.34335     11.49032      8.69131        -0.083813      0.059154     -0.390737
Pb       3.83269     11.50297     13.04895        -0.135667     -0.099241     -0.310412
Pb      15.34800     11.49808     13.05823         0.368613     -0.048614     -0.122063
Pb       7.66266      3.81017      4.33718        -0.122596      0.180848     -0.186156
Pb       7.67150      3.83090     17.39779        -0.185941     -0.215163     -0.206460
Pb       7.65897     15.34945      4.32610         0.198132     -0.079700     -0.004999
Pb       7.64136     15.34133     17.40794         0.174213      0.079351     -0.465503
Pb       7.66265      3.82079      8.69351        -0.147756      0.013494     -0.309395
Pb       7.66579     15.33321      8.68914        -0.134020      0.079631     -0.194547
Pb       7.67273      3.83150     13.06627         0.247099     -0.144834     -0.093431
Pb       7.66642     15.35065     13.04902        -0.158341      0.053837     -0.031859
Pb       7.65082      7.65422      4.32557         0.044901      0.013252     -0.263167
Pb       7.66201      7.65874     17.41216         0.015822     -0.035468      0.040916
Pb       7.65571      7.67509      8.68526         0.024118      0.020485     -0.079180
Pb       7.65709      7.65477     13.04872         0.416890      0.242469     -0.422003
Pb       7.65763     11.49595      4.33010         0.228903     -0.218638     -0.131170
Pb       7.65521     11.51275     17.40222         0.072434      0.071755     -0.113234
Pb       7.66860     11.49965      8.69365        -0.017241     -0.134802     -0.177619
Pb       7.67874     11.51586     13.05660        -0.148678     -0.221586     -0.366997
Pb      11.50994      3.81286      4.33454        -0.138639     -0.040902     -0.323547
Pb      11.50116      3.82181     17.41579        -0.071444      0.049114     -0.167525
Pb      11.50274     15.34855      4.32064         0.170582     -0.136777     -0.125783
Pb      11.49930     15.34001     17.39341        -0.256750      0.061622      0.021636
Pb      11.50899      3.83868      8.69022         0.051729      0.124117     -0.076497
Pb      11.50061     15.33595      8.69061         0.107400     -0.121495     -0.414708
Pb      11.50359      3.81092     13.06362        -0.201537      0.298097     -0.208513
Pb      11.49159     15.34013     13.04623        -0.028540      0.055834     -0.014508
Pb      11.50991      7.66377      4.32480        -0.328608      0.052828     -0.560318
Pb      11.49377      7.65614     17.41545         0.075436     -0.092198     -0.057652
Pb      11.50697      7.66277      8.68885        -0.074807     -0.295662      0.112581
Pb      11.49259      7.66642     13.04509        -0.095620     -0.336019     -0.236723
Pb      11.50799     11.49077      4.33727        -0.282103      0.117425     -0.249543
Pb      11.49308     11.49980     17.40882        -0.101606      0.027554     -0.001358
Pb      11.50040     11.49978      8.70455        -0.181184      0.164846     -0.231972
Pb      11.50094     11.50165     13.04048        -0.252909     -0.128300      0.004726
Ti       1.91724      1.91644      2.33488        -0.360189     -0.237041     -1.569175
Ti       1.91666      1.90541     15.37635         0.198563     -0.204684      0.846998
Ti       1.89672     13.41855      2.29887        -0.084676     -0.044809     -1.351369
Ti       1.89101     13.43898     15.41172         0.156956     -0.302344     -1.189793
Ti      13.44555      1.90225      2.33607        -0.346036     -0.293241     -0.756734
Ti      13.42438      1.91785     15.40846         0.074895     -0.168837     -1.333440
Ti      13.41867     13.39713      2.32391        -0.397127      0.232925     -1.111761
Ti      13.40313     13.42876     15.38425         0.267301     -0.139865     -0.733926
Ti       1.91134      1.87962      6.68151        -0.543971      0.603210     -1.018644
Ti       1.90207     13.40699      6.68859        -0.555392      0.186932     -1.037548
Ti      13.42124      1.91367      6.68361         0.382624     -0.480637     -1.080099
Ti      13.40975     13.40117      6.67343        -0.052042      0.604165     -0.941796
Ti       1.87346      1.87627     11.02859         0.303573      0.720753     -1.185854
Ti       1.88796     13.42597     11.02357         0.301037     -0.611395     -0.408997
Ti      13.39837      1.87913     11.04964         0.317305      0.364123     -1.299219
Ti      13.42012     13.39672     11.04561        -0.273650      0.363325     -0.783900
Ti       1.87540      5.74065      2.32690         0.364785      0.049473     -0.997893
Ti       1.89428      5.73357     15.38342        -0.314159     -0.050538     -0.674400
Ti      13.41756      5.74174      2.33042        -0.220179     -0.019954     -1.514831
Ti      13.41892      5.73036     15.38482        -0.238021      0.246117     -0.311575
Ti       1.89237      5.77236      6.65971        -0.449651     -0.842117     -1.004034
Ti      13.39764      5.76322      6.66659         0.582255     -0.450652     -0.688564
Ti       1.89622      5.73533     11.03051        -0.324329      0.206865     -0.382255
Ti      13.44198      5.71210     11.06227        -0.662064      0.272285     -1.186593
Ti       1.92486      9.58417      2.30934        -0.540236     -0.340374     -0.691854
Ti       1.88666      9.57242     15.38653         0.173483      0.074940     -0.949351
Ti      13.42605      9.56716      2.32067         0.008588      0.179042     -1.074690
Ti      13.38561      9.57987     15.39338         0.279531     -0.405501     -0.122324
Ti       1.88347      9.56400      6.66265         0.176148      0.023247     -0.772528
Ti      13.37928      9.59410      6.66531         0.849672     -0.053720     -0.811307
Ti       1.88109      9.58919     10.99940         0.588991     -0.404201      1.612712
Ti      13.41391      9.56991     11.04332         0.139841     -0.641762     -1.272883
Ti       5.72407      1.86124      2.32288         0.276889      0.885551     -1.551926
Ti       5.72214      1.88374     15.38896         0.271975      0.075184     -1.092300
Ti       5.73585     13.41501      2.34135         0.025958     -0.493555     -1.523660
Ti       5.72829     13.40729     15.37220        -0.104885      0.087396     -0.333372
Ti       5.71266      1.89627      6.67005         0.345951      0.115543     -0.588501
Ti       5.71131     13.41862      6.67461         0.245244      0.005377     -1.230537
Ti       5.71645      1.89953     11.06013         0.571568     -0.273843     -1.397908
Ti       5.73082     13.42910     11.02918        -0.034328     -0.604536     -0.470210
Ti       5.73524      5.72421      2.30226        -0.136512     -0.173056     -0.875928
Ti       5.71249      5.75351     15.38224         0.181060     -0.636348      0.746494
Ti       5.71507      5.76761      6.70386         0.483872     -0.282455     -1.556400
Ti       5.72804      5.72968     11.05894         0.286267      0.124997     -1.301687
Ti       5.71097      9.56357      2.31634         0.922382      0.075869     -0.742933
Ti       5.75408      9.56558     15.38337        -0.681771      0.300119     -0.243740
Ti       5.73119      9.58825      6.65756         0.307302     -0.359860     -0.684685
Ti       5.70838      9.53865     11.04249         0.466438      0.907829     -0.989800
Ti       9.57731      1.89048      2.36077         0.380584      0.156241     -1.872590
Ti       9.58498      1.92140     15.40167        -0.543079     -0.346552     -0.364334
Ti       9.56504     13.40859      2.33531         0.350304     -0.228526     -1.585988
Ti       9.58328     13.40414     15.38485        -0.643796      0.246052     -0.207958
Ti       9.56920      1.90644      6.67875        -0.071610     -0.314075     -1.185122
Ti       9.54369     13.39889      6.68911         0.556716      0.126363     -0.930226
Ti       9.58089      1.90240     11.02696        -0.322073      0.256576     -0.070526
Ti       9.56654     13.41624     11.05385        -0.219859     -0.034099     -1.461170
Ti       9.56155      5.72794      2.29814        -0.061511      0.387978     -0.823622
Ti       9.54846      5.74259     15.40731         0.598361     -0.250486     -1.543986
Ti       9.57125      5.73140      6.66721        -0.479010     -0.047520     -0.757344
Ti       9.55458      5.73205     11.04920         1.141255      0.100413     -0.737415
Ti       9.57468      9.57958      2.31854        -0.143618     -0.253537     -0.826706
Ti       9.55627      9.54968     15.39852         0.227297      0.524993     -1.382761
Ti       9.59714      9.56361      6.68957        -0.855008      0.362657     -1.606701
Ti       9.59515      9.55531     11.00801        -0.861971     -0.051490     -0.317873
O       1.94428      1.88461      0.45546        -0.183371      0.016467      1.823814
O       1.94328      1.86986     13.61978        -0.028176      0.124809     -0.665611
O       1.88290     13.43456      0.44384         0.025236     -0.069523      1.422977
O       1.88784     13.47286     13.53812        -0.027819     -0.244670      1.244185
O      13.43889      1.94361      0.51364         0.072246     -0.180505      0.573007
O      13.45583      1.89735     13.53038        -0.167694     -0.031508      1.705446
O      13.39637     13.40042      0.47784         0.176877      0.102478      1.205199
O      13.46120     13.45488     13.54505        -0.170687     -0.148809      1.011552
O       1.88167      1.94176      4.83969         0.193596     -0.283651      0.788668
O       1.88086     13.41588      4.85005         0.268328     -0.138724      0.880697
O      13.44957      1.86159      4.81296        -0.108627      0.260563      1.459436
O      13.38925     13.43929      4.84564         0.237156     -0.207506      0.750785
O       1.94066      1.92108      9.20879        -0.149764     -0.205625      1.045159
O       1.89093     13.45411      9.20028         0.141492     -0.238904      0.989664
O      13.46695      1.92580      9.16731        -0.282293     -0.131199      1.726205
O      13.39196     13.46049      9.22669         0.067669     -0.360836      1.063420
O       1.88937      5.69669      0.50378        -0.018645      0.235205      0.944033
O       1.88534      5.75009     13.54995         0.211948      0.023230      0.819752
O      13.43014      5.75774      0.46983        -0.036722     -0.148964      1.619921
O      13.44294      5.74435     13.58306        -0.006686     -0.149870      0.400784
O       1.88135      5.73223      4.83370        -0.018354      0.087480      0.808238
O      13.48960      5.73011      4.83524        -0.498654      0.174158      0.874140
O       1.88252      5.76820      9.23456         0.082703     -0.021480      0.331227
O      13.42666      5.73544      9.21183        -0.077381     -0.017132      0.945493
O       1.83673      9.61100      0.51384         0.496360     -0.259185      0.459627
O       1.90996      9.59672     13.54610        -0.063760     -0.205625      1.285396
O      13.37405      9.56292      0.49339         0.216359      0.002489      0.769021
O      13.39304      9.57371     13.59726         0.100095      0.025846      0.441136
O       1.95888      9.54201      4.86100        -0.231019      0.318122      0.608304
O      13.44982      9.59527      4.83089        -0.240881     -0.057296      1.217294
O       1.87959      9.56707      9.27407         0.122723      0.159536     -1.688032
O      13.38772      9.58579      9.18091         0.084468     -0.029231      1.447108
O       5.71522      1.84390      0.46327         0.134423      0.071209      1.642973
O       5.74227      1.88930     13.53565        -0.126488      0.109495      0.699820
O       5.69634     13.39075      0.47981         0.277098      0.157567      1.468599
O       5.73733     13.41946     13.57197        -0.033419      0.034503      0.357039
O       5.71752      1.90407      4.84179         0.049097     -0.166810      0.926625
O       5.67419     13.44889      4.82672         0.103499     -0.063216      1.170540
O       5.75676      1.91035      9.19391        -0.145244      0.021412      1.212985
O       5.73735     13.43055      9.21788        -0.080908     -0.121815      0.154534
O       5.78596      5.75071      0.46084        -0.218823     -0.030986      1.222905
O       5.75655      5.73730     13.61009        -0.162610      0.017543     -0.372744
O       5.78403      5.76790      4.87507        -0.318014     -0.030952      0.994018
O       5.73938      5.75513      9.24101        -0.047101     -0.080402      0.542863
O       5.72409      9.59789      0.50225        -0.039608     -0.204752      0.704938
O       5.76590      9.59801     13.59854        -0.122925     -0.261525      0.021162
O       5.78896      9.53039      4.84671        -0.247885      0.163424      0.662727
O       5.74822      9.55680      9.22391        -0.188116      0.022909      0.385282
O       9.60775      1.87859      0.48834        -0.186385      0.045472      1.372787
O       9.59365      1.93158     13.59828        -0.001258     -0.027368      0.485082
O       9.58920     13.41645      0.45554        -0.156300      0.019355      1.589129
O       9.53767     13.40915     13.57275         0.166167     -0.052110      0.433961
O       9.56866      1.97458      4.82708         0.140990     -0.244412      1.110337
O       9.58550     13.39535      4.87076        -0.052468     -0.030636      0.595671
O       9.59105      1.89996      9.23077         0.051964      0.028385      0.361541
O       9.57483     13.44122      9.17168        -0.003638     -0.081381      1.562223
O       9.59439      5.80938      0.47416        -0.290207     -0.295373      0.635406
O       9.52864      5.69299     13.52878         0.104214      0.331127      1.664751
O       9.59632      5.73968      4.84751         0.028148     -0.063165      0.949180
O       9.58332      5.74678      9.23164        -0.005520     -0.129720      0.225620
O       9.55383      9.57664      0.48488         0.050297     -0.020204      0.709108
O       9.57790      9.61509     13.53592        -0.087327     -0.223229      1.494315
O       9.58837      9.64330      4.81859         0.197259     -0.290597      1.536421
O       9.54819      9.59186      9.19081         0.306340      0.013619      0.488440
O       3.81823      1.91927      2.70125         0.028829     -0.413244      0.068057
O       3.84615      1.89109     15.77123        -0.613908      0.178761      0.035346
O       3.86158     13.41297      2.67172        -0.576754      0.132851      0.227784
O       3.82483     13.45368     15.75305        -0.104923     -0.463546      0.084965
O      15.34242      1.89365      2.68658         0.391395      0.037530      0.023536
O       0.00157      1.89740     15.72514        -0.511823     -0.222581      0.218615
O       0.00532     13.45013      2.70553        -0.322548     -0.397572     -0.058648
O      15.34541     13.40269     15.75600        -0.379870      0.216169      0.062339
O       3.80685      1.92378      7.04691         0.473250     -0.111564      0.082863
O       3.79231     13.48172      7.04751         0.588567     -0.469956      0.190178
O       0.01277      1.88069      7.05535        -0.573699      0.132700      0.109293
O       0.00415     13.41642      7.04685        -0.342742     -0.094290      0.216754
O       3.85985      1.92470     11.41190        -0.877342     -0.078501      0.100771
O       3.84180     13.42809     11.40007        -0.822632     -0.087275      0.029716
O      15.31859      1.92813     11.42715         0.379638     -0.343079     -0.089921
O      15.34496     13.39253     11.38529        -0.287247      0.017810      0.018341
O       3.78959      5.71551      2.69242         0.554060      0.184980      0.060342
O       3.79495      5.73514     15.79606         0.248738     -0.048618     -0.119311
O      15.33734      5.76098      2.67219        -0.329872     -0.146520      0.169613
O       0.01279      5.70148     15.74876        -0.532211      0.138863      0.139716
O       3.77647      5.74514      7.02706         0.570150      0.149186      0.306130
O      15.34534      5.74283      7.04910        -0.505033      0.120046      0.115664
O       3.83171      5.75851     11.37211        -0.046946     -0.069490      0.364553
O      15.32496      5.70670     11.38517         0.375290      0.157222      0.286973
O       3.85805      9.53639      2.69301        -0.301074      0.202851      0.139303
O       3.80834      9.56352     15.75288         0.002100     -0.014177      0.248753
O       0.04417      9.59453      2.65053        -0.813684      0.014223      0.420467
O      15.35856      9.51860     15.78448        -0.882081      0.297126     -0.090211
O       3.81204      9.56757      7.01176         0.052350      0.091077      0.358186
O      15.34212      9.62089      7.03557        -0.409559     -0.136787      0.139585
O       3.81385      9.60137     11.39065         0.169918     -0.392814      0.263653
O       0.04281      9.56997     11.38349        -1.862494      0.082320      0.240756
O       7.70501      1.89454      2.69969        -0.654701      0.062739      0.099756
O       7.63424      1.89795     15.74370         0.573332      0.122889      0.274655
O       7.65235     13.37882      2.72615         0.136376      0.251522     -0.038578
O       7.64878     13.38718     15.76228         0.093935      0.212275      0.099877
O       7.66283      1.90243      7.06346        -0.209119     -0.033350     -0.055184
O       7.66992     13.41638      7.02296        -0.820398      0.001480      0.158054
O       7.68772      1.88121     11.40792        -0.284754      0.083290      0.045850
O       7.60702     13.45756     11.43328         1.001236     -0.260050     -0.039112
O       7.64000      5.74404      2.70569        -0.073082     -0.199057     -0.047850
O       7.66796      5.71163     15.76405        -0.401836      0.262960      0.094483
O       7.64465      5.77624      7.04259         0.302467     -0.197118      0.233955
O       7.75494      5.76278     11.40223        -2.368677     -0.040036      0.318989
O       7.70317      9.59437      2.69834        -0.811268     -0.038507      0.064533
O       7.61543      9.55312     15.76847         0.683393     -0.085860      0.079109
O       7.68210      9.61604      7.05501        -0.283265     -0.216959      0.068666
O       7.68332      9.54444     11.39904        -0.130513      0.173365      0.165927
O      11.51582      1.89487      2.66594        -0.161924      0.119523      0.391018
O      11.49493      1.83796     15.79344         0.504116      0.502532     -0.134875
O      11.49927     13.38405      2.68943         0.086649      0.206384      0.122208
O      11.48370     13.42956     15.74521         0.319319     -0.145552     -0.094932
O      11.55552      1.89139      7.04934        -0.874266     -0.002921      0.002210
O      11.52797     13.42099      7.02004        -0.486564      0.012465      0.381278
O      11.51720      1.87329     11.48317        -0.137881      0.232756     -0.342761
O      11.49499     13.38408     11.42425         0.057771      0.139056      0.005645
O      11.45567      5.75231      2.62571         1.030914      0.144871      0.475586
O      11.46588      5.71152     15.77144         0.408614      0.071733     -0.022187
O      11.47477      5.69720      7.07877         0.224741      0.271182     -0.163349
O      11.49143      5.70557     11.42148         0.452351      0.133263      0.186251
O      11.50944      9.55604      2.65722         0.121811     -0.033257      0.370431
O      11.46723      9.56094     15.74482         0.448434      0.130954      0.078129
O      11.49264      9.60151      7.05288         0.288536     -0.073604     -0.010742
O      11.48825      9.52627     11.41995         0.518597      0.319183     -0.065451
O       1.91274      3.82536      2.66838        -0.222636     -0.435121      0.188495
O       1.89343      3.81180     15.77001         0.203044     -0.022706     -0.076400
O       1.88492     15.30036      2.68078         0.342054      0.605377      0.092293
O       1.96012     15.30833     15.74280        -0.431633      0.483515      0.192937
O      13.41284      3.82679      2.71170         0.047441      0.234304      0.017585
O      13.44469      3.83282     15.79015        -0.231824     -0.811608     -0.056454
O      13.42397     15.32867      2.68896        -0.001741     -0.052391      0.003354
O      13.40074     15.33321     15.79082         0.262296      0.110781     -0.065091
O       1.87419      3.82782      7.02947         0.178993      0.000866      0.233875
O       1.90128     15.35209      7.06172         0.063957     -0.180479      0.034673
O      13.39753      3.84388      7.05150         0.214753     -0.271898     -0.079896
O      13.43846     15.32054      7.06265         0.056316      0.306431      0.102849
O       1.89336      3.81243     11.35413         0.192021     -0.289652      0.438664
O       1.89541     15.34964     11.39809        -0.009416     -0.144478     -0.029520
O      13.45674      3.83528     11.44673        -0.294577     -0.783549     -0.059049
O      13.39102     15.32777     11.39533         0.215611     -0.071501     -0.012248
O       1.89008      7.67601      2.73507         0.183174     -0.371927     -0.112649
O       1.84941      7.66042     15.81648         0.467404     -0.292764     -0.105817
O      13.46616      7.69475      2.68488        -0.199045     -0.777252      0.284657
O      13.37192      7.60695     15.72737         0.257050      0.790102      0.215560
O       1.86792      7.66849      7.02273         0.058230      0.152776      0.308289
O      13.40029      7.63832      7.06825        -0.095394      0.614398     -0.157947
O       1.87039      7.65612     11.38203         0.259672     -0.330341      0.317997
O      13.43340      7.63444     11.42905         0.010930      0.582384      0.069072
O       1.89914     11.48176      2.64402         0.392244      0.545686      0.457274
O       1.88925     11.47931     15.80088         0.029327      0.152451     -0.140120
O      13.42355     11.49034      2.66378         0.222356      0.101807      0.289341
O      13.44597     11.49985     15.79863        -0.231269     -0.142887     -0.291022
O       1.90728     11.51055      7.05967         0.131922     -0.305913      0.181798
O      13.41379     11.51062      7.05898         0.041888     -0.523672      0.093397
O       1.90269     11.46835     11.45319         0.029266      1.163872     -0.234905
O      13.39738     11.43293     11.44497         0.151097      0.656274     -0.139686
O       5.72628      3.79204      2.67639         0.151547      0.147032      0.089975
O       5.75420      3.79137     15.79699        -0.178421      0.672803     -0.054904
O       5.83692      0.00961      2.70164        -0.506024     -0.606318      0.049680
O       5.70961      0.01082     15.72961         0.279026     -0.853801      0.244991
O       5.75775      3.83720      6.98695        -0.174437     -0.284524      0.420443
O       5.72035     15.31857      7.03647         0.098357      0.299795      0.063725
O       5.72862      3.84261     11.37919         0.258775     -0.155445      0.313149
O       5.72966     15.32719     11.36636        -0.016174      0.442466      0.216291
O       5.75622      7.62402      2.70011        -0.083309      0.334509     -0.089238
O       5.66274      7.63720     15.74444         0.360168      0.048735      0.128675
O       5.75006      7.66949      7.06094        -0.190670      0.074924      0.210587
O       5.74283      7.65900     11.35509         0.016935     -0.563945      0.661357
O       5.76120     11.47810      2.67209        -0.214484      0.152111      0.245975
O       5.75738     11.49990     15.71814        -0.264022     -0.222348      0.289436
O       5.75445     11.48650      6.97027        -0.346071      0.420236      0.383499
O       5.73016     11.45367     11.36092         0.109150      0.642396      0.332103
O       9.57772      3.85135      2.67002         0.035665     -0.576266      0.157485
O       9.61635      3.84714     15.76950        -0.252985     -0.449176      0.213429
O       9.60782     15.32044      2.70053        -0.197476      0.033503      0.180651
O       9.55419     15.35975     15.72272         0.020246     -0.487571      0.184591
O       9.56171      3.79897      7.03027         0.084644      0.189289      0.241210
O       9.53033     15.34973      7.00319         0.398081      0.121423      0.268986
O       9.55584      3.83353     11.45962         0.252490     -0.939318     -0.195902
O       9.58151     15.33405     11.39939         0.167201     -0.070957      0.158035
O       9.54569      7.65799      2.65862         0.219939     -0.039409      0.356745
O       9.59700      7.66792     15.78024        -0.310419     -0.109265     -0.132249
O       9.57912      7.66353      7.00488         0.214451     -0.069477      0.171000
O       9.57889      7.67361     11.37471         0.205350     -0.019467      0.253492
O       9.62075     11.50518      2.66449        -0.134307      0.038555      0.194955
O       9.59284     11.48017     15.78078        -0.196270     -0.022153     -0.068118
O       9.56414     11.50309      7.04794         0.252950     -0.178048      0.270290
O       9.59192     11.52712     11.40425        -0.094495     -0.205425     -0.025819
