  # total energy = -7881.44593462 
CRSYTAL
PRIMVEC
    15.3600000000000000    0.0000000000000000    0.0000000000000000
     0.0000000000000000   15.3600000000000000    0.0000000000000000
     0.0000000000000000    0.0000000000000000    17.440000000000000
PRESSURE
1.46727 1.53067 1.48844 -0.120007 -0.339493 0.063464
PRIMCOORD
320 1
Pb       3.90157      3.82465      4.39222        -0.078114     -0.331404      0.176344
Pb       3.92349      3.81526      0.00262        -0.504042      0.197591     -0.392347
Pb       3.78057      0.02056      4.32357         0.140210      0.435692     -0.279772
Pb       3.70911     15.31378     17.35291         0.372273      0.430349      0.128715
Pb       0.06476      3.74703      4.36188         0.152556     -0.036530      0.087488
Pb       0.08287      3.94987     17.43383        -0.125974     -0.276259     -0.369340
Pb       0.10217      0.03022      4.33746        -0.157360     -0.037380      0.050030
Pb      15.23614     15.35637     17.37892         0.139400      0.351312     -0.157702
Pb       3.75106      3.74782      8.73322         0.002050      0.346207     -0.389330
Pb       3.84401     15.35912      8.58421        -0.005909     -0.147044      0.451887
Pb      15.12729      3.97152      8.63167         0.900771     -0.642654     -0.158590
Pb      15.19280     15.32615      8.71908         0.264240      0.287264     -0.454415
Pb       3.79489      3.65673     13.10254         0.250814      0.199719     -0.298150
Pb       3.72885      0.00544     12.93210         0.538522     -0.226781      0.342928
Pb       0.03806      3.78817     13.05150         0.154022      0.160049     -0.379545
Pb      15.32028     15.26781     13.07539         0.103045      0.120509     -0.175661
Pb       3.85499      7.66294      4.32965         0.173024      0.131142     -0.153220
Pb       3.81777      7.57673     17.40834        -0.104466      0.581604     -0.008478
Pb       0.14534      7.84113      4.34119        -0.638281     -0.779775     -0.165781
Pb      15.21685      7.69228      0.00841         0.324833     -0.040611     -0.352008
Pb       3.81631      7.73776      8.62047         0.103045     -0.728604      0.257354
Pb       0.01355      7.60483      8.62792        -0.159327      0.199955     -0.020752
Pb       3.84647      7.55364     12.99820        -0.371903      0.071032      0.267611
Pb      15.33835      7.63285     13.12264         0.249086      0.269472     -0.813201
Pb       3.81382     11.59351      4.23622         0.001619     -0.538843      0.304543
Pb       3.97806     11.62944     17.40074        -0.093124     -0.922036      0.300141
Pb       0.07973     11.54684      4.36377        -0.194530      0.556137     -0.311733
Pb      15.27560     11.55983     17.30803        -0.106671     -0.370219      0.317624
Pb       3.88028     11.52614      8.61975         0.139255     -0.426263     -0.024786
Pb      15.29340     11.44639      8.71089         0.476244     -0.059630     -0.032114
Pb       3.92265     11.43230     13.12957        -0.293841      0.218013     -0.309497
Pb       0.19074     11.57701     13.04211        -0.537949     -1.078743     -0.126073
Pb       7.72169      3.76397      4.31652        -0.805920      0.029633     -0.089844
Pb       7.68528      3.86682      0.01118        -0.000667      0.121472     -0.691314
Pb       7.69915      0.00580      4.40887        -0.202673     -0.091191     -0.633742
Pb       7.54238      0.07660     17.30354         0.108975     -0.406438      0.205460
Pb       7.57629      3.85843      8.77376        -0.273761      0.103497     -0.749981
Pb       7.66055     15.27063      8.76565        -0.279459     -0.106029     -0.697671
Pb       7.88615      3.92289     13.03931        -0.902162     -0.237648      0.574456
Pb       7.69113      0.12877     13.01811        -0.823080     -0.494314     -0.259143
Pb       7.74456      7.52337      4.33231        -0.614279      0.401800     -0.344690
Pb       7.59264      7.79183     17.41614        -0.042796     -0.825487     -0.101215
Pb       7.72419      7.65993      8.67782        -0.791100     -0.000723     -0.159806
Pb       7.63408      7.73303     13.04670        -0.196583     -0.531669      0.094688
Pb       7.64295     11.51395      4.32800        -0.113218     -0.215018     -0.076450
Pb       7.73477     11.54092     17.37457        -0.819760      0.467311      0.017143
Pb       7.55394     11.60643      8.56542        -0.365795     -0.911598      0.625072
Pb       7.79145     11.49713     12.99088        -0.963292      0.587061     -0.512684
Pb      11.43989      3.77861      4.30887         0.061325      0.356790     -0.369798
Pb      11.73593      3.90615      0.09872        -0.165762     -0.292503     -0.249940
Pb      11.57105     15.25839      4.35199        -0.408810     -0.159889     -0.155620
Pb      11.28020     15.26051      0.03497         0.246169      0.264659     -0.452044
Pb      11.40639      3.87471      8.68805        -0.083578      0.003903     -0.633627
Pb      11.51395      0.02080      8.75915        -0.212266     -0.264584     -0.693839
Pb      11.60510      3.71792     13.05228        -0.411976      0.063391      0.029449
Pb      11.54516     15.32079     13.04800         0.003490      0.159172     -0.188635
Pb      11.53839      7.58030      4.36644        -0.200094      0.302977     -1.124967
Pb      11.51812      7.68685     17.39589        -0.109597     -0.221096      0.315003
Pb      11.54725      7.71762      8.70815         0.019121      0.035659     -0.717266
Pb      11.35223      7.62493     13.12699         0.407126     -0.071174     -0.148483
Pb      11.58612     11.43650      4.26276        -0.752181     -0.012484      0.135763
Pb      11.40029     11.40948     17.35941         0.221741      0.176125     -0.395615
Pb      11.60742     11.44589      8.58935        -0.632483     -0.059753     -0.299839
Pb      11.55173     11.47040     13.03709         0.311802     -0.144075     -0.390397
Ti       1.93287      1.99054      2.26356         0.052937     -0.940070      0.872837
Ti       1.86785      1.86285     15.39346         0.429118      1.060348      0.294716
Ti       1.82990     13.41517      2.29197         0.181253      0.487449     -0.095013
Ti       1.85512     13.33874     15.47040         0.276990      0.836378     -1.451398
Ti      13.36413      1.87076      2.41560         1.141727      0.353509      0.186081
Ti      13.45070      1.96347     15.32076        -0.707314     -0.336110      1.192085
Ti      13.36233     13.39466      2.21898         0.690786      0.673604      1.355866
Ti      13.28430     13.51743     15.43487        -0.148959     -0.667649     -0.230897
Ti       1.82552      1.84244      6.85659         0.707632      0.916275     -1.604305
Ti       1.87319     13.38073      6.73255         0.238491      0.529569      0.198100
Ti      13.32677      1.88637      6.64341         0.868266     -0.041889      0.484463
Ti      13.45002     13.37203      6.66441        -0.730635      1.178292      0.153989
Ti       1.87421      1.78062     10.96401         0.735384      1.047404     -0.011527
Ti       1.81888     13.29152     10.91582         1.384058      0.238643     -0.887220
Ti      13.48922      1.85623     11.05230        -0.656733      0.185859     -0.492988
Ti      13.42200     13.43422     10.97032        -0.622471     -0.543359     -0.248224
Ti       1.93918      5.75646      2.36787         0.334565     -0.030089     -0.983016
Ti       1.89542      5.69012     15.33630         0.216808      0.472744      0.526900
Ti      13.55353      5.71079      2.39636        -1.116096      1.224674     -0.007345
Ti      13.43912      5.75887     15.32095         0.259245     -0.036357      0.514513
Ti       1.85910      5.70382      6.66517         1.290317     -0.175867      1.551863
Ti      13.33441      5.72608      6.53975         0.360429      0.512092      1.464203
Ti       1.92574      5.62921     11.03429        -0.636747      0.891787      0.326966
Ti      13.33331      5.63212     11.10071         0.918110      1.274891      2.756403
Ti       1.77646      9.62742      2.27013         1.972281      0.092990     -0.150827
Ti       1.83289      9.54845     15.52474         0.849136     -0.457207     -1.137323
Ti      13.37193      9.63669      2.30002        -0.539051     -1.882959     -0.426963
Ti      13.36310      9.59576     15.33979        -0.029780     -0.199533     -0.303420
Ti       1.83496      9.57528      6.69405         1.106484     -0.862637     -0.091313
Ti      13.39399      9.60164      6.59763        -0.268741     -1.370851      0.087038
Ti       1.96575      9.48472     11.02973        -1.572660     -0.494807      0.457954
Ti      13.36672      9.44793     11.12762         1.436717      0.307670     -0.091944
Ti       5.69763      1.88524      2.24784         0.607382     -0.147699      1.520989
Ti       5.67210      1.97944     15.41757        -0.297742     -0.377067      0.587620
Ti       5.76407     13.41106      2.35263         0.244968      0.617450      0.494149
Ti       5.70491     13.49682     15.34040         1.194054     -0.456183     -0.478041
Ti       5.75932      1.83683      6.70380        -0.564636      0.364240      0.477790
Ti       5.65905     13.43866      6.57975         0.391822     -1.419997      0.113492
Ti       5.70193      1.87530     10.89480        -0.427686      0.572915     -0.603663
Ti       5.63126     13.40174     11.02740         0.851110      0.004242      0.125825
Ti       5.66891      5.69627      2.34255         0.516538      0.793945     -0.271154
Ti       5.72242      5.80504     15.44977         0.344122     -0.543937      0.532691
Ti       5.70594      5.60039      6.68726        -0.001175      1.645283      0.970859
Ti       5.71701      5.66528     11.04492        -0.216594     -0.142140     -1.006914
Ti       5.61291      9.61720      2.32647         0.491370     -1.083266     -0.116995
Ti       5.73485      9.62092     15.38649        -1.518857      0.100423      2.325941
Ti       5.66765      9.45595      6.61582         0.348157      1.092008      0.779274
Ti       5.72604      9.57759     11.07485         0.258736      0.354966     -1.424300
Ti       9.52586      1.85775      2.30851        -0.155754     -0.779561     -0.185818
Ti       9.65046      1.91705     15.49228         0.014459      0.114307      1.635782
Ti       9.55439     13.37955      2.34215        -0.407380      0.428495      2.336452
Ti       9.51341     13.42009     15.20756         0.270529      0.518701      1.147170
Ti       9.56587      1.85907      6.66923        -0.886668     -0.008119      1.011691
Ti       9.51969     13.35452      6.69749         0.768850      0.915730     -0.606412
Ti       9.54220      1.90114     10.92244         0.661880     -0.084753      0.983041
Ti       9.58830     13.46637     10.98914        -1.415259     -0.094101      0.837596
Ti       9.54047      5.68038      2.24635         0.918339      1.107172      0.724643
Ti       9.66536      5.71070     15.52153        -1.362329      0.233305      0.527020
Ti       9.51947      5.72407      6.59546         0.100308      0.126367      0.107077
Ti       9.57317      5.69790     11.00500        -0.566536      0.098376     -0.558316
Ti       9.45685      9.54962      2.28520         0.352552     -0.325045      2.096519
Ti       9.50007      9.59376     15.36907         0.428457     -1.315679      0.366651
Ti       9.46967      9.53826      6.70060        -0.056993      0.249002      2.511529
Ti       9.58212      9.59429     11.04727        -0.333568     -0.212452     -0.427221
O       1.85633      1.96294      0.51428        -0.075876      0.050245     -0.527056
O       1.98135      1.92003     13.65059        -0.445557     -0.360670     -1.256780
O       1.75206     13.42556      0.53234         0.017954      0.276225     -0.922432
O       1.78402     13.29449     13.62455         0.086346      0.282839      1.076021
O      13.41906      2.03310      0.69799         0.394897     -0.492507     -1.013519
O      13.48187      1.97652     13.57319        -0.141901     -0.350160     -1.135673
O      13.34198     13.44902      0.46635         0.104181      0.138902     -0.404145
O      13.30461     13.66874     13.68785         0.180742     -0.891952     -1.508003
O       1.84733      1.81957      5.02778         0.194065      0.065117      0.343038
O       1.79001     13.38411      4.94937         0.237724     -0.208544     -0.339212
O      13.36285      1.94314      4.88917        -0.131785     -0.158869     -0.371444
O      13.51666     13.38058      4.92940        -0.477205     -0.073776     -0.496246
O       1.86145      1.82909      9.21781        -0.023728      0.107992     -0.770329
O       1.92476     13.26976      9.12342        -0.627894      0.188894      0.598207
O      13.50627      1.89981      9.28632        -0.125610     -0.124195     -0.495826
O      13.51335     13.40806      9.18295        -0.409222     -0.078838     -0.079785
O       1.88743      5.58743      0.57654        -0.063408      0.332891      0.272197
O       2.02025      5.83150     13.59805        -0.512492     -0.310983     -0.582529
O      13.46526      5.76994      0.60020         0.470527     -0.199272     -0.152488
O      13.35655      5.69998     13.58100        -0.039785     -0.070454     -0.386887
O       2.00339      5.72770      4.96618        -0.274160      0.066776     -1.885778
O      13.43098      5.59754      4.85509        -0.531705      0.442390     -1.725970
O       1.92623      5.64324      9.29268        -0.454688      0.099314     -0.462077
O      13.38651      5.79453      9.42960        -0.342632     -0.062670     -3.171602
O       1.82106      9.61831      0.55163        -0.182929      0.108642     -1.318001
O       1.69741      9.58022     13.71865         0.298205      0.336500      0.052679
O      13.26337      9.49273      0.50325         0.298656      0.470718      0.570203
O      13.25103      9.49099     13.56785         0.308306      0.529416      0.129847
O       1.84339      9.53771      4.92664        -0.063013      0.188417     -0.756432
O      13.23956      9.61520      4.86988         0.665143      0.158860     -1.278020
O       1.96822      9.50301      9.29843        -0.333378      0.012731     -1.137566
O      13.31718      9.37359      9.32072         0.017594      0.569100     -0.484847
O       5.63947      1.83799      0.51556         0.005556      0.349824     -1.436146
O       5.59586      1.89398     13.71041         0.158977     -0.049058     -1.529687
O       5.89033     13.30681      0.61776        -0.302785      0.186882     -0.615517
O       5.66992     13.56173     13.58979         0.067934     -0.396377     -0.529027
O       5.73029      1.83827      4.97265        -0.024534     -0.138303     -1.164910
O       5.68008     13.32503      4.81552         0.138070      0.524001     -0.412777
O       5.65560      1.90512      9.07719         0.532245     -0.088759      0.962659
O       5.73341     13.39896      9.24025        -0.331149     -0.075089      0.592205
O       5.61572      5.80940      0.57406         0.107058     -0.521498     -0.755776
O       5.64537      5.74708     13.72161         0.312076      0.230567     -1.117831
O       5.65506      5.67579      4.96335         0.123087      0.334370     -1.573621
O       5.82917      5.65690      9.26002         0.068922     -0.089075      0.374783
O       5.69965      9.66588      0.54097         0.122688     -0.072979      0.455974
O       5.64735      9.53146     13.69376         0.353957      0.280606     -2.238757
O       5.67621      9.39825      4.87968        -0.136781      0.115325     -0.898318
O       5.76806      9.74494      9.30262        -0.512971     -0.445455      0.966433
O       9.44893      1.77242      0.54365         0.387175      0.252099     -0.205849
O       9.70086      1.97814     13.79596        -0.205802     -0.222053     -1.800840
O       9.60289     13.38167      0.66027        -0.043636     -0.044431     -2.615741
O       9.53570     13.53122     13.45063         0.037189     -0.043775     -0.376730
O       9.61969      1.79011      4.93314         0.081190      0.157423     -0.932772
O       9.60052     13.48093      4.91102        -0.276870     -0.353822      0.530492
O       9.65596      1.87463      9.19888        -0.476019      0.412822     -0.569587
O       9.32498     13.54019      9.26576         0.879150     -0.332587     -0.438848
O       9.67930      5.75021      0.50168        -0.659948     -0.374205     -0.225682
O       9.53729      5.72386     13.78396         0.148576     -0.368249     -1.419594
O       9.59168      5.70939      4.79528        -0.065165      0.133544      0.099815
O       9.45959      5.56085      9.19125         0.551048      0.312088      1.445384
O       9.59443      9.56540      0.56962        -0.257382      0.168217     -1.625239
O       9.57790      9.43702     13.63011        -0.343398      0.556888     -0.746271
O       9.50217      9.52373      5.03996         0.015963      0.012337     -2.831105
O       9.59794      9.52253      9.29976         0.323497      0.039588     -0.156883
O       3.89746      1.90510      2.77940        -1.358089     -0.221818     -0.126219
O       3.72018      2.02170     15.76069         0.856815     -0.668087      0.762524
O       3.80218     13.27165      2.61917         0.047840      0.644656      0.022079
O       3.91265     13.48624     15.79507        -2.908387     -0.949462      0.352011
O       0.07258      1.91688      2.79892        -0.215429      0.049081     -0.208674
O      15.27606      1.82942     15.73972         0.475551     -0.342141      0.402595
O      15.26189     13.37475      2.77522         0.581841      0.371725     -0.453982
O      15.24322     13.41120     15.73812         0.985997      0.338959      0.329599
O       3.82964      1.90621      7.10112        -0.389960     -0.010252      0.205391
O       3.79504     13.44366      7.02943        -0.584687     -0.456906     -0.026047
O      15.30220      1.92781      7.04112        -0.966777     -0.369633      0.393795
O      15.33429     13.50401      7.02908         0.031326     -0.446811      0.553946
O       3.82066      1.87147     11.32635        -0.495743     -0.051768      0.441802
O       3.68787     13.35691     11.38184         0.768933     -0.081609      0.224961
O       0.03805      1.84393     11.36295        -0.407674      0.392410      0.766213
O      15.28934     13.33582     11.23149         0.761806      0.450292      0.841893
O       3.84150      5.65033      2.73559        -1.476393      0.222716      0.418168
O       3.76442      5.78914     15.79204         0.059202      0.149191      0.418099
O       0.06532      5.81086      2.76435        -0.252560     -0.487470      0.127654
O      15.32816      5.77899     15.66922         0.317309     -0.154766      0.439731
O       3.84178      5.70249      7.08048        -0.327816      0.052312      0.336848
O      15.33659      5.73902      6.91522        -0.938242     -0.105388      0.767748
O       3.79841      5.83763     11.38508         0.599055     -0.242192      0.120852
O      15.21703      5.61960     11.40418         1.149668      0.226095      0.486491
O       3.74363      9.71134      2.67903         0.111263     -0.274522      0.262926
O       3.82903      9.57060     15.82723        -0.580455      0.421181      0.006507
O      15.32496      9.50731      2.61913        -1.349282      0.477621      0.611425
O      15.27866      9.68734     15.82377        -0.310062      0.028838      0.180029
O       3.78742      9.55475      7.07786        -0.068401     -0.054141      0.059620
O      15.30830      9.51618      6.95156        -0.025731      0.038187      0.726968
O       3.76032      9.65103     11.52890         1.184825     -0.610906      0.009913
O      15.27266      9.45430     11.34182         0.218349      0.595265      0.505685
O       7.61774      1.88403      2.66844         0.704887     -0.030311      0.431792
O       7.56069      1.89306     15.76153         0.940979     -0.016472      0.190864
O       7.68818     13.36345      2.79258        -0.607480      0.447693      0.188650
O       7.69813     13.47984     15.74331        -0.555094     -0.246611     -0.080299
O       7.62463      1.83457      6.98572         1.022115     -0.018949      0.452844
O       7.57123     13.38205      7.10443         0.551510      0.623194     -0.604174
O       7.54084      2.15132     11.34696         1.523575     -0.967350      0.023616
O       7.52861     13.35934     11.38397         0.904142      0.255927      0.510769
O       7.55768      5.70020      2.64097         1.377904     -0.022958      0.281095
O       7.65090      5.66851     15.87811        -0.561930      0.193073      0.230896
O       7.68595      5.86409      6.99404        -0.757549     -0.558035      0.267563
O       7.61555      5.61660     11.44094         0.913804     -0.337147      0.260762
O       7.55104      9.36804      2.76677         0.671223      0.900035     -0.347656
O       7.60558      9.61773     15.80798         0.821451     -0.226454      0.036881
O       7.53079      9.65883      7.09452         1.223423     -0.448108     -0.091578
O       7.68418      9.70539     11.41530        -0.221996     -0.413683      0.598592
O      11.52780      1.89088      2.68463        -0.956671      0.217375      0.331207
O      11.61816      1.97831     15.95483        -1.442201      0.036666     -0.343267
O      11.47476     13.40080      2.66533         1.307964     -0.084127      0.332458
O      11.38596     13.48084     15.74492        -0.175570     -0.832981      0.328323
O      11.45473      1.87524      7.19090         0.145320      0.505412     -0.307585
O      11.46206     13.38743      7.04341         0.436897     -0.270197      0.426038
O      11.56845      1.72633     11.28113        -1.174958      0.340661      0.512054
O      11.43533     13.68811     11.27071         0.405044     -0.436873      0.050013
O      11.45203      5.76200      2.56454         0.230440     -0.567895      0.838682
O      11.57969      5.78281     15.86223        -0.064484     -0.327058     -0.164877
O      11.42314      5.77256      7.07921         0.910521     -0.217319     -0.048739
O      11.43611      5.64334     11.55822        -0.807045      0.492946     -0.569492
O      11.42017      9.58180      2.70842         0.544865      0.242502      0.180724
O      11.38440      9.46577     15.69668         0.553769      0.475990      0.559657
O      11.51508      9.56312      6.94222        -0.345579      0.261664      1.145704
O      11.46480      9.51219     11.44246        -1.094872      0.267234      0.411589
O       2.01465      3.81612      2.76748        -0.688783      0.051294      0.033683
O       1.93414      3.80912     15.62664        -0.979987      0.707819      0.586279
O       2.03944     15.35276      2.61549        -0.673187     -0.207842      0.419197
O       1.94611      0.04098     15.77360        -0.544232     -2.014920      0.379818
O      13.47446      3.89377      2.71661        -0.118532     -1.107333      0.398556
O      13.56852      3.83841     15.74475        -0.682048      0.361212      0.233633
O      13.52318     15.35216      2.83828        -0.679345     -0.648870     -0.767242
O      13.17385     15.33790     15.61081         1.198091      1.345292      1.184965
O       1.90191      3.79835      7.15912        -0.328761      0.230807     -0.029998
O       1.96229     15.31672      7.10571        -0.559485     -0.536474      0.113577
O      13.39744      3.82466      6.92924        -0.383125     -0.000871      0.937216
O      13.31309     15.35077      7.07260         0.422813     -0.058179      0.084867
O       1.96811      3.78766     11.47759        -0.376388     -0.439448      0.048890
O       1.96310     15.32273     11.39021        -1.020341     -1.137823     -0.064931
O      13.35960      3.74723     11.44136         0.042052     -0.220620      0.102309
O      13.53737     15.32604     11.45563         0.039191     -0.323602      0.153446
O       1.89967      7.70058      2.60283         0.361787     -0.522860      0.607549
O       1.76585      7.71688     15.80165         0.295809     -0.836476      0.345235
O      13.40426      7.68141      2.77232         0.005446      0.058865      0.171312
O      13.49645      7.70242     15.76596        -0.320921     -0.410595      0.062851
O       1.94313      7.63591      7.13982        -0.467987     -0.104825     -0.076833
O      13.44381      7.64065      6.90027        -0.365809     -0.217078      0.493745
O       1.85494      7.60055     11.42458        -0.100499     -0.001781      0.313612
O      13.28802      7.67012     11.57128         0.016754     -1.454911     -0.126738
O       1.83203     11.54881      2.59249        -0.439619     -0.368526      0.911282
O       1.94799     11.53306     15.80252        -0.370883      0.496314      0.294969
O      13.45671     11.49934      2.57634        -0.375537      0.126362      0.341166
O      13.31920     11.46946     15.67219        -0.437000      0.373917      0.428610
O       1.90263     11.37842      7.09084        -0.584386      1.851643      0.108406
O      13.52035     11.49428      6.91619        -0.335064     -0.290912      1.051643
O       1.83513     11.41983     11.27218        -0.475707      0.689081      0.788710
O      13.28734     11.59808     11.40652        -0.302884     -0.467832      0.200141
O       5.69201      3.78353      2.80046         0.421820     -0.122075     -0.380701
O       5.63672      3.86087     15.76505         0.228828      0.003837      0.616531
O       5.80040      0.00309      2.70458        -0.433138     -0.966281      0.103727
O       5.54666     15.29205     15.79240         1.061986      1.733414      0.502079
O       5.79833      3.80721      6.95543         0.192610     -0.796003      0.737315
O       5.64595     15.26039      7.01921         0.446699      0.724141      0.124489
O       5.57262      3.77688     11.27740        -0.023335      0.694816      0.483237
O       5.68133      0.01866     11.36900         0.350788     -0.551225      0.072546
O       5.54192      7.59630      2.69865         0.265937      0.651252      0.086196
O       5.67757      7.70617     15.87464         0.605198     -0.198976     -0.032564
O       5.73526      7.68265      7.22156        -0.031943     -0.633460     -0.385370
O       5.85169      7.67106     11.40702        -0.423758      0.042919      0.221267
O       5.78619     11.47342      2.75647         0.098599      0.028098      0.208881
O       5.77164     11.55272     15.84961        -0.034899     -0.105707     -0.426682
O       5.66281     11.51898      6.94081        -0.107743     -0.145574      0.413877
O       5.70372     11.46829     11.55325        -0.269462      0.458387      0.225306
O       9.49481      3.73282      2.73597         0.543284      0.780443     -0.232159
O       9.55552      3.81758     15.90234         0.178527     -0.697184      0.209323
O       9.63520     15.32605      2.70138        -0.175506      0.252113      0.355751
O       9.54134     15.27350     15.79643         0.300380      1.253200      0.028066
O       9.49184      3.87745      6.88680         0.418569     -1.470260      0.677014
O       9.52277     15.31169      7.10043         0.148986      0.093681      0.184787
O       9.67278      3.74890     11.47298        -0.174192      0.421998     -0.081965
O       9.37731      0.07208     11.35958        -0.083897     -0.214114      0.154902
O       9.53580      7.64461      2.70667         0.051201     -0.416592      0.037978
O       9.47232      7.58662     15.78490         0.151034      1.344206      0.411410
O       9.50424      7.64376      7.11114         0.504044      0.559024     -0.035245
O       9.34819      7.55832     11.49484         1.233025      0.342241     -0.616051
O       9.47887     11.47449      2.69368         0.190379     -0.753354      0.268899
O       9.54523     11.51147     15.67510         0.151634     -0.281191      0.087640
O       9.54754     11.48302      7.10602         0.203703      0.075549      0.129270
O       9.62582     11.52650     11.43612         0.361022      0.252335     -0.024538
