  # total energy = -7879.69340421 
CRSYTAL
PRIMVEC
    15.6000000000000000    0.0000000000000000    0.0000000000000000
     0.0000000000000000   15.6000000000000000    0.0000000000000000
     0.0000000000000000    0.0000000000000000    17.640000000000000
PRESSURE
-5.47995 -5.58005 -4.62263 -0.084365 0.469504 -0.091193
PRIMCOORD
320 1
Pb       3.80585      3.91608      4.31056         0.122624     -0.222549      0.214547
Pb       3.85251      3.82792     17.53976         0.330443     -0.211641      0.682156
Pb       4.00737      0.09504      4.35730        -0.712929      0.275711     -0.691798
Pb       3.92357     15.50506     17.51162         0.086710      0.169958      0.709310
Pb      15.58674      3.85656      4.36341        -0.225085      0.014045      0.526019
Pb      15.50206      3.91767     17.60258         0.277249     -0.133282     -0.023739
Pb      15.56671      0.00764      4.43244         0.678333      0.212751     -0.802354
Pb       0.09331     15.50846     17.51802        -0.082630      0.187023     -0.233055
Pb       3.95923      3.80735      8.72817        -0.512392      0.049234     -0.096557
Pb       3.89101     15.53083      8.74505         0.183091      0.587292     -0.213826
Pb      15.54115      3.86789      8.75625         0.152836     -0.060766     -0.747957
Pb       0.02402     15.40738      8.85244         0.019142      0.044497     -0.586665
Pb       3.81253      3.94601     13.24272         0.358290      0.017394     -0.813760
Pb       3.77366     15.52319     13.13801         0.324043      0.384668      0.167100
Pb      15.48717      3.85378     13.08430         0.110149     -0.121507     -0.176087
Pb      15.57739     15.57809     13.12765         0.024413     -0.097917     -0.117847
Pb       3.84149      7.72817      4.42467        -0.207514      0.188687     -0.525273
Pb       3.78181      7.70229     17.63771         0.124538      0.391948     -0.120453
Pb      15.49966      7.86855      4.39108         0.295212     -0.338682     -0.330903
Pb      15.53512      7.72786     17.63613         0.375639      0.095605     -0.271585
Pb       3.96064      7.75199      8.69818        -0.656278      0.167086      0.189731
Pb      15.54841      7.67459      8.79842         0.635328      0.493140     -0.716208
Pb       3.83581      7.69506     13.19470         0.190163     -0.212223     -0.443613
Pb      15.54712      7.80266     13.21526        -0.130932     -0.155179     -0.406512
Pb       3.88795     11.73272      4.36809        -0.096844     -0.212815     -0.165791
Pb       3.87526     11.68323      0.02620         0.405042     -0.003889     -0.606151
Pb      15.53458     11.69626      4.45035         0.241531     -0.046512     -0.883049
Pb      15.54393     11.69265      0.03245         0.113714     -0.333836     -0.817350
Pb       3.83926     11.61165      8.74455         0.309234     -0.384353     -0.464614
Pb      15.53168     11.71684      8.78616         0.452229     -0.263729     -0.390963
Pb       3.87691     11.74214     13.17415        -0.021120     -0.296693      0.079818
Pb      15.57102     11.64369     13.10850        -0.158457      0.225574      0.337220
Pb       7.72140      3.98540      4.34107         0.283490      0.703941     -0.226114
Pb       7.72095      3.83815     17.52068        -0.227510      0.158968      0.071366
Pb       7.83655      0.12139      4.32360        -0.002390     -0.587804     -0.485570
Pb       7.87279     15.59756     17.54543        -0.137090     -0.397719     -0.136354
Pb       7.77918      3.82795      8.81749         0.159120      0.476533     -0.328140
Pb       7.72534     15.49279      8.81906         0.654873     -0.103420     -0.155101
Pb       7.70216      3.93263     13.12853         0.062702     -0.386851     -0.020178
Pb       7.72405     15.49705     13.22827         0.249369      0.455048     -0.739813
Pb       7.71932      7.99760      4.35439         0.101149     -0.692387     -0.480621
Pb       7.77478      7.81599      0.06470        -0.121838      0.093265     -0.533501
Pb       7.77376      7.76954      8.77099         0.177971     -0.018219     -0.534139
Pb       7.61217      7.74259     13.14515         0.331077     -0.239406      0.114198
Pb       7.80014     11.82326      4.36825         0.232561     -0.050074     -0.375368
Pb       7.74315     11.66063      0.03524        -0.198833      0.350598     -0.244047
Pb       7.70672     11.68210      8.86337         0.143863      0.046279     -0.708699
Pb       7.86761     11.57604     13.24835        -0.149575      0.101192     -0.455264
Pb      11.57369      3.97560      4.38029         0.679703      0.029630      0.354517
Pb      11.73338      3.93862     17.56747         0.135304     -0.123993     -0.419554
Pb      11.74207      0.12114      4.44491        -0.074220      0.304430     -0.738542
Pb      11.65044     15.58938     17.58195        -0.027164     -0.195103     -0.773807
Pb      11.66666      3.86781      8.78926         0.187733     -0.290524     -0.580540
Pb      11.72295     15.58203      8.88821        -0.201521      0.167912     -0.469235
Pb      11.54738      3.88157     13.22847        -0.038562     -0.417055     -0.754733
Pb      11.69537     15.45549     13.14452        -0.466547      0.624298     -0.570558
Pb      11.60444      7.82664      4.41907         0.281861     -0.347507     -0.542091
Pb      11.52435      7.85000     17.63641        -0.080593     -0.129646     -0.368319
Pb      11.69380      7.74790      8.74352        -0.167663      0.168317     -0.506175
Pb      11.60095      7.79333     13.20611         0.126233     -0.311676     -0.427208
Pb      11.73412     11.92891      4.37619         0.134553     -0.552875     -0.681998
Pb      11.77970     11.69860     17.60553        -0.121778      0.377120     -0.550249
Pb      11.71612     11.59746      8.69831        -0.132711     -0.027053      0.566198
Pb      11.72551     11.67165     13.09417         0.097355      0.019575     -0.300067
Ti       1.92212      2.04307      2.36635         0.758645     -1.675286     -0.542082
Ti       1.84275      1.93894     15.49124         1.305283     -0.464332      0.152610
Ti       2.00043     13.72456      2.24445        -0.646539      0.489195      1.791905
Ti       1.97271     13.58735     15.58430        -0.223609     -0.355922     -1.027055
Ti      13.64687      1.90241      2.31673        -0.015965      0.297501      1.069845
Ti      13.59250      1.89178     15.52566        -0.181393     -0.110723     -0.282289
Ti      13.73938     13.69037      2.21386        -0.315830     -0.250945      2.903056
Ti      13.67032     13.61516     15.41143        -0.179244     -0.144617      2.094897
Ti       2.03911      1.88084      6.84254         0.094063      0.678188     -0.714004
Ti       2.15103     13.57918      6.60829        -1.648123      0.239047      0.883495
Ti      13.81245      1.78708      6.84537        -1.491446      1.082478      0.195788
Ti      13.77870     13.59866      6.77270        -0.069141     -0.029206      0.625889
Ti       1.97984      1.92112     11.11225         0.511071      0.321290     -0.672845
Ti       1.96438     13.50682     11.13691        -0.528077      0.745538      1.031590
Ti      13.66145      1.91335     11.12657        -0.726499     -0.175883      0.607288
Ti      13.66509     13.59322     11.11183         0.036898     -0.211936     -0.815533
Ti       1.97040      5.87090      2.33638        -0.229693      0.513337     -0.008451
Ti       1.94037      5.76363     15.55412        -0.127072      0.730775      0.238057
Ti      13.74893      5.77238      2.42139        -1.020069      0.375719      0.360078
Ti      13.65468      5.85871     15.56264         0.023007     -0.269893      1.334823
Ti       1.96914      5.79548      6.72590         0.181521      0.020975     -0.579076
Ti      13.60354      5.78472      6.73683        -0.155278      0.092196     -0.838991
Ti       1.84335      5.78653     11.14123         0.632427      0.132391     -0.102311
Ti      13.56809      5.84273     11.05860         0.128253     -1.334189      0.705427
Ti       2.02549      9.82655      2.35137        -0.620763     -0.573433      1.111930
Ti       1.93331      9.72803     15.61279         0.301486      0.328868      0.822853
Ti      13.72291      9.77655      2.38664        -0.538789     -0.072619     -0.969901
Ti      13.61395      9.69024     15.73127         0.309386      0.815017     -1.123110
Ti       1.92712      9.66746      6.72094        -0.240506     -0.108033      0.177058
Ti      13.71330      9.73360      6.79007        -0.213766     -0.714655      0.581480
Ti       1.99754      9.67412     11.18830         0.104535     -0.826685     -2.029503
Ti      13.65246      9.66358     11.11468        -0.025126      1.058356     -0.758136
Ti       5.93634      2.05112      2.39211        -1.385187     -0.529765     -1.450701
Ti       5.74308      1.92217     15.62225         1.466817     -0.035595      0.562410
Ti       5.80621     13.65190      2.37386         1.354388      0.118241     -1.454103
Ti       5.91632     13.60209     15.60111        -0.187596     -0.172437      0.799806
Ti       5.94483      1.95680      6.82021        -1.159348      0.389858     -0.113663
Ti       5.95551     13.66304      6.68880         0.380929     -0.356083      0.312952
Ti       5.81549      1.90723     11.24192         0.347015     -0.067821      0.390946
Ti       5.86616     13.54907     11.20979         0.220737      0.652409     -0.501809
Ti       5.77619      5.82274      2.26192         1.325262      0.902777     -0.481717
Ti       5.77795      5.87713     15.67797         0.631768     -0.498349     -1.761360
Ti       5.86930      5.79493      6.71757        -0.169612      0.558063      0.480971
Ti       5.86087      5.82525     11.09519        -0.521758     -0.528589      0.798776
Ti       5.84954      9.80694      2.45243         0.004734     -0.623576     -0.697286
Ti       5.87882      9.70387     15.63302        -0.091415      0.781574     -0.216944
Ti       5.82291      9.70187      6.79055         0.316552      0.473215     -0.136440
Ti       5.88420      9.69204     11.19588        -1.056069      0.476497     -2.421647
Ti       9.77378      1.99875      2.34141         0.453977     -0.456550      0.004091
Ti       9.67944      1.99214     15.54101         0.931666     -1.041758     -0.860129
Ti       9.78730     13.68096      2.32075        -0.391313      0.104923     -0.562794
Ti       9.75355     13.59307     15.50170         0.363962      0.693078      0.846495
Ti       9.79844      1.91847      6.80855         0.828324     -0.194085      0.843392
Ti       9.91495     13.62996      6.74808        -0.859376      0.102828      1.879648
Ti       9.76911      1.87411     11.13172        -0.167462     -0.645322      2.574462
Ti       9.74533     13.52650     11.09824        -0.178915      1.390461     -0.815427
Ti       9.77768      5.87524      2.21984        -0.760462     -0.132289      0.011158
Ti       9.66769      5.81914     15.59879         0.018954      0.566844     -0.154254
Ti       9.72711      5.84207      6.86415        -0.226928     -0.345000     -0.170118
Ti       9.73133      5.79710     11.09896        -0.261029     -0.142696     -0.700254
Ti       9.79556      9.78163      2.35287        -0.041621      0.488231      0.946444
Ti       9.71185      9.80224     15.53273        -0.478794     -0.025336      0.244687
Ti       9.76020      9.80615      6.71972        -0.199468     -1.077210      1.537403
Ti       9.76373      9.62435     11.14309        -0.128988      0.956756     -0.390901
O       2.03444      1.99938      0.61464        -0.524842      0.097341      0.426727
O       1.90008      1.93172     13.69203        -0.071501      0.248202      1.797934
O       2.00618     13.78437      0.51842        -0.185057     -0.407886     -0.867711
O       1.89868     13.52784     13.73930         0.891027     -0.137835      1.220296
O      13.70855      2.05683      0.59117        -0.090768     -0.071538     -0.122045
O      13.59942      1.80786     13.72117        -0.031100      0.425752      1.586144
O      13.59190     13.58543      0.54787         0.180666     -0.159604     -2.297315
O      13.68740     13.62334     13.69404        -0.340784     -0.183435     -0.539747
O       2.00399      1.89309      5.05916         0.027070     -0.017057     -0.180765
O       2.08107     13.66498      4.86686        -0.249987     -0.079614      0.549481
O      13.70447      1.78779      5.08307         0.028746     -0.455452     -0.196130
O      13.84528     13.51602      5.01326        -0.269355      0.549225     -0.427383
O       2.17625      1.97522      9.26611        -0.872457     -0.399770      1.678014
O       2.00868     13.62501      9.39297         0.001448     -0.055639      0.374701
O      13.69244      1.77423      9.36721         0.159056      0.070114      0.137247
O      13.81487     13.55054      9.27633        -0.009338      0.253987      1.094834
O       2.06050      5.81665      0.54886        -0.423632      0.069671      0.835536
O       1.94969      5.79374     13.76346        -0.044794     -0.064375      0.497311
O      13.83890      5.63019      0.62961        -0.493798      0.370107      0.507191
O      13.69989      6.09211     13.87262        -0.199027     -0.305919     -1.418454
O       2.01998      5.83690      4.92054         0.216337      0.123249      0.733128
O      13.54191      5.85551      4.93026         0.110502     -0.046104      1.354702
O       1.78734      5.90424      9.37251         0.049986     -0.469085      0.957930
O      13.68362      5.78281      9.31412         0.014194      0.058359      0.176944
O       1.90945      9.68880      0.63420         0.081076      0.252300     -0.627538
O       1.96280      9.82045     13.86573        -0.063489     -0.277602     -0.426438
O      13.67889      9.90331      0.55400         0.091846     -0.385352      0.852788
O      13.62960      9.72722     13.95438        -0.051337     -0.470419      0.047993
O       2.05202      9.65417      4.94182        -0.307789     -0.078905      0.129444
O      13.75179      9.64539      5.04980        -0.067160      0.156340     -0.924104
O       1.95633      9.45091      9.39704        -0.005774      0.962571      1.767971
O      13.65693      9.73943      9.33894         0.131535     -0.161928      0.794514
O       5.98868      2.17137      0.63129        -0.143041     -0.400749     -0.088227
O       5.85526      1.91917     13.91131        -0.353016      0.027434     -0.663191
O       5.97579     13.44564      0.54172        -0.316129      0.366855      2.253138
O       5.86721     13.66723     13.83828        -0.248367     -0.421658     -0.488939
O       5.93752      2.01550      5.07108         0.040703     -0.127283     -0.684220
O       5.98587     13.68773      4.93082        -0.106071      0.230631      0.501325
O       5.81599      1.88543      9.49967         0.130407      0.128082     -0.631996
O       5.82943     13.61031      9.41746         0.083277      0.011497      0.446857
O       5.82295      5.84453      0.46031        -0.032334     -0.109180      0.584632
O       5.76042      5.82465     13.78694         0.222452      0.535324      1.302121
O       5.89282      5.81253      4.94562        -0.040542      0.012018      0.251366
O       5.97562      5.84121      9.36115        -0.291560      0.020212      0.340876
O       5.92279      9.95741      0.70996        -0.081215     -0.064049     -0.550298
O       5.96011      9.68636     13.83214        -0.178591      0.148151      0.399296
O       5.81803      9.73886      5.02024        -0.097994     -0.450496      0.081752
O       5.77600      9.81393      9.30841         0.247266     -0.232007      1.357756
O       9.80519      1.96779      0.58386        -0.085111      0.136197      0.144674
O       9.89574      1.98536     13.76154        -0.265640      0.049805      0.885283
O       9.76123     13.76585      0.52350         0.194862     -0.170431      0.890754
O       9.85047     13.70549     13.77136        -0.331614     -0.408006     -0.767728
O       9.89547      1.87845      5.04380        -0.255715     -0.040736      0.418672
O       9.87217     13.59838      5.01191         0.193185      0.191758     -0.421661
O       9.84064      1.74801      9.44134        -0.438585      0.401880     -1.710916
O       9.58048     13.59242      9.29882         0.524769     -0.310635      1.315825
O       9.84209      5.83137      0.36636        -0.051334      0.116967      1.496136
O       9.73225      5.90602     13.80889         0.207609      0.102612      0.645702
O       9.70588      5.71954      5.11433         0.047189      0.355757     -0.321770
O       9.70930      5.83563      9.31368        -0.078689     -0.212310      0.821120
O       9.78591      9.75954      0.63093         0.081402     -0.102891     -0.663149
O       9.48751      9.79733     13.75886         0.807834     -0.550825     -0.242264
O       9.81440      9.58831      4.99641        -0.113946      0.435621     -0.568912
O       9.81743      9.77781      9.40127        -0.318329     -0.185966      0.274381
O       3.90979      1.93298      2.70414         0.120360      0.409307      0.753135
O       3.97566      1.83040     16.12506        -1.277276      0.521426     -0.686969
O       3.94441     13.72067      2.76002         0.533244     -0.293386     -0.235736
O       3.96553     13.55679     16.19315        -0.461799     -0.088025     -1.150229
O       0.01924      1.85650      2.84745        -0.478157      0.323959     -0.196493
O       0.08811      1.92781     16.03659        -0.492063     -0.298724     -0.632755
O       0.02702     13.71237      2.54743         0.224331     -0.147947      0.336146
O       0.05512     13.67945     15.79544        -0.566379      0.101045      0.767739
O       3.97651      1.95531      7.19135         0.106017      0.251438      0.258981
O       3.95951     13.56256      7.06027         0.272585     -0.025007      0.100513
O       0.03952      1.82089      7.18701         0.428452      0.211740      0.348627
O       0.11218     13.62208      7.26114         0.070329      0.206139     -0.514184
O       3.88547      1.98685     11.54816        -0.867878      0.073378      0.363960
O       3.90545     13.62506     11.70109        -0.616279     -0.485505     -0.566100
O      15.52587      2.00397     11.64625         0.529637     -0.654016     -0.646188
O      15.57212     13.51521     11.58434         1.145484      0.314287     -0.444259
O       3.89525      5.82759      2.67690        -0.290260     -0.060128      0.294059
O       3.95859      5.93566     15.90664        -1.299317     -0.362627      0.380206
O      15.52687      5.73470      2.86865         1.145901      0.423350     -0.351026
O       0.05274      5.82705     16.02651         0.088522      0.009812     -0.176863
O       3.90345      5.87498      7.13213         0.292415     -0.213997     -0.018499
O       0.05066      5.68799      7.00080        -0.902973      0.405100      0.613886
O       3.86446      5.72180     11.53523        -0.337760      0.417071     -0.019056
O      15.50279      5.74870     11.58877         0.145673      0.317253     -0.161720
O       3.92250      9.73834      2.77453        -0.412916      0.133045      0.147628
O       3.85980      9.79200     16.06469         0.348770      0.003639     -0.200759
O       0.03325      9.75750      2.80772        -0.039675     -0.047435      0.029611
O       0.02688      9.84453     16.05341         0.049619     -1.042427      0.174990
O       3.75379      9.72871      7.22285         2.025425      0.069954     -0.023811
O      15.59295      9.58497      7.22124        -0.277981      0.279070     -0.192939
O       3.94810      9.60225     11.53932        -1.090007      0.901078      0.487265
O      15.54669      9.88173     11.55966         0.110902     -1.249770      0.004619
O       7.76149      2.09439      2.72350         1.710577     -0.285826      0.609702
O       7.82854      1.92993     15.98223        -0.463295      0.085012      0.098639
O       7.91350     13.64892      2.76512        -0.666752     -0.085536      0.364044
O       7.82474     13.58958     15.94812         0.501954      0.404036     -0.068840
O       7.80613      1.96905      7.25921         0.665657     -0.234166     -0.103837
O       7.87231     13.68990      7.20355        -1.216964     -0.309354     -0.537714
O       7.79245      1.86407     11.70916        -0.131978      0.240760     -0.416095
O       7.75760     13.63705     11.52671         0.000450     -0.015898      0.266010
O       7.79312      5.76048      2.66268         0.598674     -0.144423     -0.115473
O       7.74212      5.84564     15.95406         0.665501      0.333511      0.130465
O       7.74169      5.79344      7.28887         0.381546      0.288196     -0.359253
O       7.83253      5.84156     11.60811        -0.685921     -0.091484     -0.245032
O       7.73486      9.83337      2.74801         1.257903     -0.453883      0.699821
O       7.85819      9.71802     16.02908        -0.999261      0.226981      0.299033
O       7.81053      9.61168      7.07836         0.179720      0.372192      0.154313
O       7.73517      9.68296     11.44255         1.055060      0.128116      0.500851
O      11.74150      1.87234      2.82551        -0.294241      0.076794     -0.189820
O      11.73761      1.92407     16.08065         0.217772      0.632280     -0.456316
O      11.75951     13.51215      2.68343        -0.433810      0.422974      0.303309
O      11.71563     13.59923     15.93634         0.519913      0.073812     -0.072187
O      11.72619      1.86718      7.31045        -0.727309     -0.248276     -0.244747
O      11.83841     13.43183      7.22805        -0.930155      1.000057     -0.814727
O      11.68027      1.80335     11.50453         0.530572      0.001760      0.205009
O      11.72865     13.58364     11.40789        -0.111378      0.384329      0.267491
O      11.59033      6.01403      2.81648         0.412826     -0.986418     -0.478491
O      11.75703      5.77090     15.91367        -0.420287      0.201484      0.199167
O      11.68579      5.77957      7.21550         0.520872     -0.189675      0.028603
O      11.58908      5.74432     11.51755         1.495351      0.970256      0.293601
O      11.72308      9.77672      2.72455         0.091296     -0.241027      0.184151
O      11.62977      9.75813     16.00411         0.687905     -0.201194      0.155984
O      11.73595      9.70460      7.29852        -0.214498      0.152963     -0.755221
O      11.70023      9.77105     11.55562         0.204616     -0.802057      0.431697
O       1.86013      3.95933      2.86810         0.468812     -0.738899     -0.453092
O       2.08012      3.87704     16.07705        -0.408967     -0.460247     -1.297050
O       2.00587     15.59940      2.71677        -0.106649      0.126363      0.287215
O       2.09570     15.52603     15.98529        -0.671217      0.845818     -0.370241
O      13.61261      3.85016      2.94921        -0.102817     -0.023734     -0.751031
O      13.78649      3.86874     16.01282        -0.574621     -0.298178     -0.608671
O      13.57333     15.56644      2.61231         0.390038      0.231517      0.427217
O      13.67491     15.57019     16.00036         0.074973      0.156871     -0.342695
O       2.03401      3.83340      7.09169        -0.190430      0.797200      0.496781
O       2.12502      0.00712      7.06549        -0.234597     -1.844922      0.428011
O      13.57664      3.78176      7.22924         0.696922      0.526050      0.007686
O      13.69605     15.50049      7.22239        -0.056847     -0.235493     -0.045245
O       1.83349      3.80659     11.59221         0.175563      0.871497     -0.231045
O       1.88524      0.04595     11.62690         0.125083     -0.737379     -0.702733
O      13.56276      3.81374     11.46559         0.044818      0.836926      0.210497
O      13.74648     15.47397     11.62912        -0.287670      0.436435     -0.650498
O       1.93774      7.74443      2.69513         0.019726      0.084906      0.235767
O       2.05523      7.65926     16.03950        -0.850542      1.253094     -0.369418
O      13.73055      7.74798      2.72884        -0.062760      0.727611     -0.080192
O      13.70601      7.76118     16.04342        -0.082972      0.291993      0.529829
O       2.00724      7.77427      7.19512        -0.511863     -0.899385     -0.354894
O      13.56467      7.71895      7.15245         0.456395     -0.313989      0.117951
O       1.87863      7.76383     11.59376        -0.198674     -0.324761      0.500953
O      13.65557      7.70691     11.50263        -0.157771      0.868051      0.098858
O       2.03299     11.76169      2.78194        -0.126858     -0.428954     -0.464948
O       1.92845     11.71793     16.10016         0.204648     -0.192224     -0.169153
O      13.78814     11.68567      2.80138        -0.287912     -0.147130      0.072504
O      13.71488     11.66291     15.99238        -0.338607      0.812635      0.172433
O       1.87798     11.58680      7.11583         0.311166      1.159588     -0.081702
O      13.73436     11.67331      7.00642         0.453872     -0.782726      0.723549
O       1.92476     11.63574     11.44743         0.734322      0.086171      0.249016
O      13.60139     11.69367     11.51372         0.022699     -0.728959      0.313024
O       5.83495      3.95799      2.75239        -0.218964     -0.308796      0.354097
O       5.74297      3.92881     15.94421         0.468463     -0.509902      0.216692
O       6.02658     15.59466      2.67058        -0.460304      0.135108      0.440788
O       5.89164     15.47450     16.10596         0.095628      1.088773     -0.294364
O       5.81128      3.97191      7.25412         0.490105     -1.109166     -0.152095
O       5.75941      0.10021      7.16445         0.661293     -1.932862      0.002585
O       5.88880      3.89533     11.59915        -0.027759      0.147794     -0.055059
O       5.67927      0.03218     11.72163         0.785816     -0.923597     -0.314101
O       5.89121      7.78737      2.60825        -0.089231     -0.121880      0.642231
O       5.81352      7.88618     16.09925         0.358349     -0.506798     -0.012737
O       5.83795      7.78844      7.16914        -0.084466     -0.033571     -0.135637
O       5.76981      7.78835     11.51744         0.524615     -0.978143      0.279230
O       5.88699     11.72974      3.01491        -0.438651      0.517856     -0.681342
O       5.93846     11.69800     16.10402        -0.281007     -0.972907     -0.565569
O       5.88589     11.68185      7.09763        -0.032747      0.345624      0.235840
O       5.95849     11.64677     11.49635        -0.878432      0.359579      0.570383
O       9.89380      3.84645      2.84654        -0.668400      0.753943     -0.882955
O       9.66425      3.90476     15.85124         0.568672      0.314591      0.334952
O       9.69553      0.05515      2.78530         0.436756     -0.095393      0.075937
O       9.81472      0.02597     15.87179        -0.282398     -0.057260      0.587636
O       9.74905      3.89624      7.27992        -0.024236     -1.340256      0.038557
O       9.77871     15.50641      7.26527         0.376118      0.396237     -0.574347
O       9.83358      3.85588     11.55274        -0.676843      0.003173     -0.091471
O       9.71032     15.49263     11.52913         0.242774     -0.042424      0.243081
O       9.66958      7.74642      2.69370        -0.084511      0.741013     -0.083849
O       9.69402      7.89134     16.11699         0.566335     -1.085771     -0.373809
O       9.84282      7.70704      7.22685        -0.370580      1.082087     -0.031556
O       9.68276      7.77377     11.40973         0.568122     -0.098571      0.662027
O       9.67623     11.72229      2.76042         0.664356     -0.385706      0.018762
O       9.73306     11.70894     15.80175         0.141975     -0.410228      0.391091
O       9.77680     11.64259      7.20749        -0.155400      0.237458     -0.544217
O       9.86273     11.69525     11.57740        -1.033933     -0.599329      0.192440
