  # total energy = -7881.13710208 
CRSYTAL
PRIMVEC
    15.3600000000000000    0.0000000000000000    0.0000000000000000
     0.0000000000000000   15.3600000000000000    0.0000000000000000
     0.0000000000000000    0.0000000000000000    17.440000000000000
PRESSURE
2.33942 1.77718 -1.65333 0.053288 -0.064975 -0.005095
PRIMCOORD
320 1
Pb       3.82250      3.86424      4.22530        -0.334801      0.203320      0.395477
Pb       3.76727      3.90722     17.33671         0.272100     -0.698418      1.324948
Pb       3.87562      0.00342      4.21715        -0.382568      0.017568      0.774096
Pb       3.98125      0.04537      0.02116        -0.792580     -0.344637      0.182931
Pb      15.23035      3.93435      4.28607         0.898962     -0.826009      0.564344
Pb      15.20205      3.73745     17.37334         0.578075     -0.054259      0.255708
Pb      15.24120     15.31958      4.33627         0.091019      0.448988      0.210071
Pb       0.11653      0.00889     17.41406        -0.497538     -0.053207      0.116686
Pb       3.96118      3.88947      8.56658        -0.692801     -0.177329      1.279066
Pb       3.77552     15.26023      8.75771         0.362990      0.324463     -0.671750
Pb       0.15696      3.68541      8.65306        -0.473678      0.530964      0.909804
Pb       0.17911     15.30233      8.57486        -0.851926      0.308570      0.397871
Pb       3.87828      3.94838     13.07446        -0.657550     -0.344467      0.491089
Pb       4.01409     15.32824     13.23576        -0.754575      0.030603      0.009116
Pb      15.23518      3.87818     12.94777         0.709691     -0.159507      0.318900
Pb      15.32178      0.03640     12.99155         0.443090     -0.138899      0.844324
Pb       3.78949      7.65399      4.30717         0.184240     -0.307868      0.074817
Pb       3.85118      7.78287      0.00083        -0.005116      0.118155      0.150175
Pb      15.18999      7.43759      4.29293         0.375168      1.436706      0.848464
Pb       0.19561      7.66154     17.41326        -0.737008      0.454023      0.037583
Pb       3.80705      7.56272      8.65720        -0.007772      0.271736      0.406202
Pb      15.30321      7.70103      8.64576         0.292125     -0.435181      0.876195
Pb       3.81534      7.83056     13.08680         0.650541     -0.736205      0.384934
Pb      15.32722      7.74329     12.90869        -0.113820     -0.077234      0.444561
Pb       3.84959     11.41065      4.35007         0.175789     -0.206575      0.017479
Pb       3.71332     11.42803     17.43235         0.287122      0.196219      0.556785
Pb      15.34826     11.41161      4.27708        -0.290818     -0.210448      0.767327
Pb       0.08845     11.38577      0.08233        -0.113334      0.103723     -0.346571
Pb       3.72083     11.49652      8.67306         0.565240     -0.333655     -0.070804
Pb       0.10599     11.61036      8.59319        -0.670195     -0.665584      0.556350
Pb       3.73624     11.58614     12.99698         0.669282     -0.095901      1.016784
Pb      15.12593     11.42910     13.00411         0.308855     -0.039436      0.727934
Pb       7.57850      3.95428      4.25903         0.197057     -0.615644      0.903848
Pb       7.71225      3.83614     17.32102        -0.701526     -0.108317      1.203320
Pb       7.56840     15.34899      4.19030         0.158150      0.210034      0.797965
Pb       7.81278     15.26309      0.00199        -0.015079      0.325517      0.281395
Pb       7.71206      3.76127      8.68186        -0.712331      0.119190      0.061927
Pb       7.69382      0.04772      8.67443        -0.452320     -0.457705     -0.087507
Pb       7.48534      3.66634     13.02599         1.162001      0.491675      0.461224
Pb       7.71931     15.05473     13.13286        -0.641637      1.186636      0.551818
Pb       7.59161      7.78166      4.34970         0.135074     -0.425640      0.528756
Pb       7.78312      7.49843     17.36766        -0.463697      1.112355      0.289114
Pb       7.62766      7.61653      8.69720        -0.392935      0.165035      0.364380
Pb       7.73321      7.61890     13.04753        -0.584677      0.238810      0.205973
Pb       7.66549     11.51118      4.25001        -0.495991     -0.214943      1.369244
Pb       7.69714     11.45209     17.33364        -0.093329     -0.287716      1.005421
Pb       7.76265     11.42343      8.79108        -0.798083      0.198878     -0.411084
Pb       7.58050     11.52706     13.07860        -0.296507     -1.028831      0.272366
Pb      11.57595      3.90873      4.37473        -0.434943     -0.001679     -0.055231
Pb      11.26820      3.78229     17.30499         0.977254      0.257663      0.505686
Pb      11.47827      0.14784      4.29321         0.261411     -0.295450      0.154405
Pb      11.70406      0.04433     17.31304        -0.321042     -0.103867      0.547180
Pb      11.68183      3.70907      8.68672        -0.191269      0.095109      0.613813
Pb      11.50752     15.30965      8.62402         0.058055      0.068128      1.090145
Pb      11.41249      3.91292     12.89477        -0.194616     -0.025034      0.234061
Pb      11.42028     15.29759     13.08591         0.413723     -0.233525      0.310739
Pb      11.53332      7.68704      4.37156        -0.230854     -0.017738      0.079966
Pb      11.43810      7.65440     17.32650         0.124146      0.492951      0.898621
Pb      11.45004      7.58989      8.65814         0.697914      0.084981      0.820952
Pb      11.62481      7.71126     12.94861        -0.326264     -0.269185      0.341989
Pb      11.39463     11.56370      4.37404         0.286843     -0.274422      0.308598
Pb      11.64820     11.57519     17.40487        -0.230844     -0.414973      0.512380
Pb      11.34596     11.52330      8.75450         0.545949     -0.160514     -0.040902
Pb      11.38453     11.56383     13.03115         0.631611     -0.018161      0.390041
Ti       1.92550      1.85923      2.31046        -0.843631      0.931623      0.525738
Ti       1.92673      1.96944     15.44053        -0.229886     -0.564858     -2.018818
Ti       1.82822     13.39637      2.40221         0.643996     -0.104263     -1.973259
Ti       1.86711     13.46415     15.50790         0.632877     -0.295721      0.955748
Ti      13.45688      1.95915      2.30647        -0.291850     -0.276254      0.146073
Ti      13.40500      1.97795     15.21282         0.331789     -0.941387      2.133643
Ti      13.38321     13.45277      2.47113        -0.712425      0.039124     -1.717832
Ti      13.47150     13.41718     15.44586        -0.245768     -0.106383     -1.294982
Ti       1.95857      1.92708      6.67542        -0.140899     -0.111076     -1.515356
Ti       1.90750     13.34446      6.58526        -0.381630      1.334408     -0.025712
Ti      13.41709      1.80425      6.74559         1.139405      0.744619     -1.051391
Ti      13.32606     13.33146      6.73302         1.133024      0.800092     -1.704692
Ti       1.92058      1.88761     11.13601         0.512543      0.249742     -0.215495
Ti       1.88788     13.43691     11.08641        -0.013974      0.056986     -0.145863
Ti      13.41243      1.82516     11.09489        -0.287871      0.281711     -2.032518
Ti      13.44135     13.39206     11.09111        -1.169438     -0.042001     -1.655361
Ti       1.81831      5.69468      2.24262         1.165296      0.221625      0.457689
Ti       1.95655      5.79103     15.39269        -0.816721      0.282681     -0.300296
Ti      13.33023      5.79673      2.29502        -0.361958      0.537297      1.066804
Ti      13.42863      5.77347     15.41149         0.071116      0.161165     -1.010087
Ti       1.89542      5.74956      6.72827        -0.165988      0.498119     -1.277405
Ti      13.43956      5.66973      6.84538         0.546916      0.604326     -0.535012
Ti       1.96097      5.73308     11.07423         0.156000     -0.352298     -2.029608
Ti      13.47338      5.66830     11.02700        -1.407343      0.952632     -1.943187
Ti       1.84030      9.50328      2.48160         0.797863      0.261838     -1.846735
Ti       1.88389      9.58874     15.32721        -0.149084      1.204844      0.679736
Ti      13.31862      9.66843      2.37947         1.008072     -1.069985     -1.884810
Ti      13.38136      9.54306     15.47778         0.779605      0.736351     -0.569347
Ti       1.90956      9.52163      6.68022        -0.026867     -0.496841     -0.677882
Ti      13.41075      9.57106      6.81495         0.469200     -0.369439     -1.336898
Ti       1.95883      9.58162     11.00897        -0.595195     -0.000559     -1.849554
Ti      13.41224      9.58778     10.90272         0.162740      0.326556     -1.322318
Ti       5.73006      1.92842      2.24419         0.405495      0.309391     -1.094821
Ti       5.81269      1.88476     15.51386        -0.790748     -0.217426      1.645369
Ti       5.65662     13.37932      2.37562         0.433247     -0.769125      0.180657
Ti       5.76871     13.38662     15.53558        -1.237674     -0.135029     -1.388949
Ti       5.69910      1.84830      6.68025         0.155490      0.075641      0.173010
Ti       5.68626     13.33994      6.70982         0.840123      0.238853     -0.809057
Ti       5.63848      1.84453     11.10904         0.686447      0.235304     -1.184941
Ti       5.69963     13.43434     11.08970        -0.889885     -0.003418      0.039653
Ti       5.73130      5.74150      2.22114        -1.305470     -0.028511     -0.179391
Ti       5.71589      5.71135     15.48330        -0.086358      1.040330     -1.436523
Ti       5.73081      5.77665      6.66422        -0.167431     -0.469996     -0.180637
Ti       5.73549      5.76016     11.11266         0.150613      0.590750     -1.777465
Ti       5.78012      9.55448      2.30084        -1.057530      0.229131     -0.647110
Ti       5.73547      9.57494     15.50166        -0.104653     -0.148133     -1.274233
Ti       5.74864      9.55035      6.73449         0.190065      0.633824     -1.703842
Ti       5.72784      9.60510     11.05731         0.880189     -0.689508     -0.336310
Ti       9.58063      1.95587      2.36109        -0.249017     -0.029104     -0.682177
Ti       9.53955      1.95377     15.34178         0.313237     -0.742984     -0.821282
Ti       9.55495     13.42028      2.39106         0.144693      0.155724     -1.489178
Ti       9.62201     13.42185     15.49214         0.796555      0.368946     -0.986481
Ti       9.58099      1.94572      6.66095        -0.423423     -0.026632     -0.891119
Ti       9.52937     13.46532      6.69242        -1.220480     -0.446080      0.168198
Ti       9.49096      1.81650     11.10772         0.195834      0.685777      0.227326
Ti       9.49154     13.42151     11.11564         0.677614     -0.640938     -0.120081
Ti       9.50244      5.74937      2.39611         0.669460      0.350888     -0.151641
Ti       9.58849      5.83005     15.31135         0.259182     -0.351564     -1.520371
Ti       9.58344      5.69321      6.81410        -0.824118      0.250091     -2.133264
Ti       9.55668      5.74013     10.98666        -0.193899     -0.243311      1.711146
Ti       9.54461      9.56519      2.37646         1.154561     -0.501384     -2.232143
Ti       9.58826      9.67139     15.36915        -0.521295     -1.045871      0.433943
Ti       9.60406      9.50629      6.79912        -1.335589      0.789772     -0.777410
Ti       9.59249      9.53915     11.10657        -0.744276      0.166278     -0.837275
O       1.71218      1.99131      0.57228         0.207105     -0.358506     -0.229880
O       1.97647      1.96028     13.59343        -0.575528     -0.024686      1.804026
O       1.83079     13.43846      0.55135        -0.050145     -0.128191      1.804826
O       1.99846     13.46633     13.79798        -0.101869     -0.186380     -1.277919
O      13.35869      1.95443      0.55009         0.415373      0.235792      0.241535
O      13.54610      1.96751     13.49366        -0.259576      0.250206     -1.023524
O      13.22260     13.38207      0.64440         0.362520      0.233558      0.838162
O      13.29088     13.35374     13.65249         0.632006      0.179160      0.365641
O       2.11895      1.93876      4.89089        -0.659023     -0.126238      0.639887
O       1.84847     13.40535      4.86644        -0.039215      0.088489     -1.098479
O      13.45082      1.76095      4.92252        -0.221753      0.407129      0.758702
O      13.47972     13.46076      4.86418        -0.620514     -0.187807      1.539417
O       1.84229      1.84918      9.33748         0.340440     -0.274005      0.637644
O       1.83993     13.41888      9.27589         0.409335     -0.026804      0.640501
O      13.50132      1.89988      9.23977        -0.374245     -0.316721      1.829332
O      13.41067     13.45461      9.27957        -0.030985     -0.246234      0.865642
O       1.86644      5.70436      0.47330        -0.224240      0.337377      0.353583
O       2.02035      5.90115     13.62578        -0.422851     -0.499234      0.152599
O      13.26525      5.73560      0.61768         0.167756     -0.154344     -1.892704
O      13.41564      5.71797     13.55835         0.006335      0.061166      1.330126
O       1.95720      5.88026      4.92234        -0.321685     -0.491540      0.395581
O      13.37111      5.83146      5.01612         0.232661     -0.397857      0.613625
O       1.96996      5.67109      9.26681         0.221432      0.436051      1.496422
O      13.42664      5.65758      9.21660        -0.389306     -0.008010      0.563926
O       2.00716      9.63027      0.58679        -0.784366     -0.466487      1.354873
O       1.87169      9.54051     13.57675        -0.024364      0.133622     -1.062162
O      13.36563      9.73270      0.53560        -0.054710     -0.081634      0.865472
O      13.48661      9.55753     13.67579        -0.158428     -0.076007      0.708640
O       1.99000      9.54452      4.84900        -0.379665     -0.231078      0.743180
O      13.50714      9.59494      4.98543        -0.525755     -0.147032      1.229092
O       2.01231      9.64604      9.14272        -0.364358      0.068111      2.106535
O      13.46948      9.60660      9.07152        -0.460355      0.237244      1.817902
O       5.65337      1.95103      0.45604         0.722048     -0.197866      0.896140
O       5.84066      1.75945     13.81607        -0.064704      0.125595     -1.613083
O       5.81665     13.28125      0.65786        -0.097865      0.232829     -0.463391
O       5.68672     13.51156     13.61583         0.237299     -0.458235      2.359110
O       5.79413      1.73487      4.94526        -0.538278      0.374621     -0.607875
O       5.73685     13.30742      4.89531        -0.145979      0.419856      1.123353
O       5.61297      2.04578      9.33140         0.183620     -0.719692      0.373782
O       5.61925     13.47238      9.35272        -0.073305     -0.048305     -0.579107
O       5.61296      5.73854      0.42983         0.599039      0.048850      0.508535
O       5.55073      5.83413     13.65846         0.726706     -0.389469      1.556265
O       5.61019      5.75028      4.89655         0.368199     -0.109190      0.371112
O       5.62340      5.73901      9.23752         0.469037     -0.118840      1.499910
O       5.66492      9.68954      0.49281         0.228242     -0.633767      0.975232
O       5.67215      9.62411     13.68938         0.129875     -0.211664      0.804077
O       5.82504      9.57092      4.85178        -0.236416     -0.243685      2.072321
O       5.81096      9.49250      9.30138        -0.232894      0.379903     -0.026607
O       9.36214      1.97508      0.56399         0.934769      0.111596      0.694681
O       9.49120      1.93769     13.56547         0.043361      0.098036      0.531102
O       9.49878     13.47073      0.53885         0.344245     -0.079669      1.486814
O       9.67215     13.49395     13.63966        -0.463311     -0.555440      1.440527
O       9.63968      2.07189      4.87259         0.184898     -0.577047      1.105301
O       9.55111     13.30838      4.95607         0.008104      0.473980     -0.393008
O       9.47991      1.83048      9.34037         0.050295     -0.073891      0.291122
O       9.41667     13.60058      9.37144         0.268389     -0.524308     -0.029199
O       9.57847      5.76893      0.60038        -0.119639     -0.114699      0.787746
O       9.65880      5.90343     13.51316        -0.132828     -0.590590      1.236570
O       9.52808      5.75502      5.00399         0.311617     -0.299559      0.700840
O       9.53647      5.68788      9.25537        -0.074418      0.186712     -0.983374
O       9.68914      9.52462      0.54612        -0.581880      0.054142      1.843111
O       9.55494      9.57978     13.61044         0.135038      0.111802      0.055004
O       9.44907      9.53685      5.01847         0.625421     -0.000569      0.402748
O       9.49407      9.49756      9.24433         0.462519      0.532899      1.756651
O       3.85595      1.85852      2.52234        -0.340406      0.457890      0.640938
O       3.77262      1.83826     15.86032         0.495638     -0.010853     -0.135118
O       3.76729     13.35504      2.78062         0.103565      0.053999     -0.228985
O       3.88918     13.44062     16.02547         0.122938      0.037430     -0.802836
O      15.31715      1.89301      2.80264         0.214656     -0.127037     -0.180278
O      15.26336      1.83724     15.77536         0.778786      1.057381     -0.086998
O      15.26098     13.46781      2.65827         0.739746      0.188179      0.420858
O      15.31978     13.37549     15.87365         0.087569      0.333513     -0.108344
O       3.75475      1.90623      7.07162         1.184156     -0.012796      0.448552
O       3.76815     13.32565      7.02048         0.558439      0.464428      0.400204
O       0.03684      1.91186      7.13461         0.027373     -0.658765     -0.496707
O      15.26995     13.35681      7.01615         0.584908      0.338944      0.146686
O       3.83941      1.83255     11.61618        -0.440493     -0.140123     -0.398147
O       3.79441     13.50645     11.58098        -0.421962     -0.195273     -0.531637
O       0.01120      1.95802     11.53109        -0.258940     -0.129325     -0.269413
O      15.30845     13.23964     11.47383         0.610703      0.707158     -0.143274
O       3.81606      5.64495      2.67979        -0.116046      0.328296     -0.310526
O       3.76139      5.62841     15.82329         0.992447      1.402117     -0.214780
O      15.25967      5.79790      2.69318         0.735539     -0.146056     -0.324564
O      15.33868      5.92646     15.73940        -0.246025     -0.887964      0.055015
O       3.78559      5.77793      7.04224         0.856693      0.321737      0.157659
O       0.00501      5.81750      7.17932        -0.917845     -0.479400     -0.499968
O       3.90522      5.82954     11.52862        -1.502317     -0.202796     -0.233263
O      15.25491      5.74696     11.29525         1.872828     -0.523358      0.828568
O       3.86865      9.59377      2.70491        -0.266610     -0.361499      0.215133
O       3.77290      9.57541     15.75967         0.717279      0.108205      0.239987
O      15.33646      9.44929      2.73644         0.409347      0.633786      0.006993
O       0.00128      9.58519     15.78901        -0.368077      0.069832      0.360408
O       3.79818      9.51643      7.05367         0.429762      0.005987     -0.029132
O      15.34359      9.46814      7.09220         0.442442      0.945708     -0.268731
O       3.83870      9.44535     11.38207        -0.916948      0.553520     -0.011333
O      15.29642      9.74347     11.38670         0.597106     -0.383208     -0.224591
O       7.68601      1.95064      2.82625        -0.394997     -0.459124     -0.532092
O       7.67991      1.92663     15.90644        -0.225860      0.060829     -0.438237
O       7.59374     13.40910      2.82598         0.917419      0.106101     -0.587800
O       7.71574     13.36417     15.84101        -0.295278      0.514545     -0.263829
O       7.60261      1.97625      7.02722         0.732719     -0.413474      0.363055
O       7.62195     13.37324      7.19954        -0.253699      0.567212     -0.318456
O       7.62811      1.88362     11.47082         0.337909     -0.108896     -0.006899
O       7.50951     13.30650     11.54950         2.372153      0.639064     -0.160724
O       7.56555      5.75617      2.80880         1.153130     -0.156728     -0.741719
O       7.72493      5.78980     15.76728        -1.780494     -0.357428     -0.154556
O       7.62236      5.74450      7.05269         0.380967     -0.194117      0.356193
O       7.60089      5.77753     11.51715         0.797129     -0.522990     -0.330987
O       7.71347      9.57987      2.71602        -0.671492     -0.065385     -0.225030
O       7.67067      9.57305     15.85688         0.336163     -0.055198     -0.220694
O       7.65940      9.56440      7.20162         0.088810     -0.014832     -0.095730
O       7.59633      9.62445     11.56840         1.293782     -0.055484     -0.326135
O      11.56021      1.97394      2.67046        -0.963494      0.362582      0.373141
O      11.47458      1.96463     15.60099        -0.199357      0.409179      0.316665
O      11.43959     13.40785      2.88910        -0.023713     -0.372735     -0.249207
O      11.54853     13.51658     15.83728        -0.770362     -0.336777      0.076546
O      11.54185      1.83442      7.20451        -0.906717      0.733334     -0.720714
O      11.41441     13.44293      7.13036         0.866418     -0.279384     -0.047931
O      11.47645      1.80101     11.45397         0.025952      0.401425     -0.152861
O      11.40815     13.44685     11.47542         0.711777     -0.129213     -0.209148
O      11.47829      5.79305      2.83748        -0.332226     -0.206885     -0.081619
O      11.45986      5.84353     15.74549         0.727513     -0.998667      0.040757
O      11.45423      5.61967      7.09963         1.259889      0.175676      0.336247
O      11.45927      5.83944     11.40357         0.513639     -0.454359     -0.166770
O      11.51343      9.58734      2.79858        -1.262634      0.248526      0.312093
O      11.43765      9.60997     15.80996         0.661833     -0.335560     -0.311065
O      11.45336      9.53182      7.19378         0.571954      0.680004     -0.229405
O      11.54432      9.61623     11.51778        -0.886500     -0.346836     -0.861638
O       1.81557      3.84037      2.79615         0.155108     -0.005118     -0.357279
O       1.98695      3.85518     15.87772        -1.504250     -0.164829     -0.884904
O       1.96230      0.02310      2.72155        -0.497954     -0.872274     -0.020869
O       1.85007      0.01010     15.89215         0.204888      0.176389     -0.119937
O      13.49658      3.90460      2.81001        -0.687352     -0.415044     -0.430247
O      13.43823      3.82215     15.91427        -0.472987      0.853007     -1.210143
O      13.25818      0.02072      2.67041         0.687399     -0.294535      0.308071
O      13.42907      0.07189     15.77739        -0.149853     -0.472292     -0.336199
O       1.90005      3.90585      7.10937         0.019415     -1.409794     -0.435927
O       1.92516     15.30010      7.01829        -0.049862     -0.032440      0.188240
O      13.58547      3.74339      7.14983        -1.068987      0.810167     -0.437740
O      13.38326      0.01697      7.13064         0.347154     -1.874639     -0.101395
O       2.05612      3.83565     11.39377        -0.631511      0.046753      0.468215
O       1.86469     15.31374     11.53400        -0.321931     -0.288812     -0.480340
O      13.37175      3.78933     11.33645        -0.165104      0.002415      0.562492
O      13.44604     15.30997     11.52443         0.209983      0.023745     -0.245227
O       2.01051      7.60739      2.68502        -0.494407     -0.285966     -0.210073
O       1.92230      7.78185     15.79103         0.255066     -1.908299      0.301135
O      13.42398      7.79862      2.70297        -0.514016     -2.090754      0.306404
O      13.38162      7.67894     15.92464         0.054891     -0.403218     -0.477313
O       1.85977      7.61753      7.22130         0.454060      1.073527     -0.506737
O      13.42077      7.63931      7.23871        -0.724390     -0.356004     -0.616003
O       1.75335      7.62895     11.34750         0.539450      1.136648      0.061682
O      13.49582      7.73579     11.29962        -0.381929     -0.409804      0.268141
O       1.81453     11.47490      2.72496         0.042273      0.394171      0.027636
O       1.95473     11.52091     15.92087        -0.516712     -0.202266     -0.628620
O      13.48504     11.45891      2.83781        -0.366322      1.389377     -0.010911
O      13.40789     11.51026     15.80950        -0.138057     -0.060696      0.076278
O       2.00375     11.49321      6.96338        -0.960490     -0.864300      0.412810
O      13.45663     11.49853      7.18251        -0.852044      0.239165     -0.419885
O       2.03076     11.49025     11.46230        -0.377948     -0.030537     -0.508518
O      13.25805     11.49143     11.42563         0.493284      0.217026      0.032705
O       5.75127      3.80959      2.63555         0.094098     -0.112961      0.228024
O       5.61923      3.81210     15.81325         0.911857      0.130235     -0.457293
O       5.70945     15.33725      2.60977         0.282961     -0.129446      0.263744
O       5.76202     15.29437     15.99132         0.520311      0.025817     -0.519117
O       5.67669      3.85182      7.10645         0.501733     -0.285718     -0.733090
O       5.63272     15.31122      7.11660         0.137215     -0.009542      0.108345
O       5.72997      3.72073     11.63165        -0.357625      0.995396     -0.595623
O       5.80964     15.33984     11.51279        -0.271480     -0.082652     -0.062109
O       5.79987      7.60554      2.68042        -0.411388      0.682969     -0.320572
O       5.75611      7.67350     15.91772        -0.354383     -0.635376     -0.277500
O       5.81723      7.69162      7.07734        -0.463532     -0.546921      0.035620
O       5.82884      7.63632     11.42807        -0.343493      0.411296      0.158747
O       5.70746     11.37058      2.90290         0.453213      1.316849     -0.996455
O       5.79658     11.46915     15.90122        -0.216376      0.907803     -0.520533
O       5.69516     11.45239      7.19018         0.069052      0.140199     -0.099735
O       5.76681     11.51875     11.50404        -1.082816     -0.478436     -0.220171
O       9.57459      3.84251      2.75532         0.063586      0.598020     -0.039720
O       9.41831      3.90988     15.87441         1.349662     -0.751547     -1.089081
O       9.66388      0.00617      2.73805        -0.690237     -0.133695     -0.099474
O       9.57151      0.04933     15.75871        -0.212794     -0.371071      0.123041
O       9.57673      3.78130      7.14544         0.041988     -0.223795      0.183052
O       9.53362      0.02884      7.14098        -0.032337      0.077454     -0.493695
O       9.50574      3.87655     11.43167         0.374910     -0.869227     -0.045495
O       9.58189     15.22193     11.65423        -0.927638      1.585509     -0.786689
O       9.54525      7.64087      2.86721         0.132706      0.259867     -0.439052
O       9.53327      7.62194     15.81351         0.222971      1.242212     -0.109885
O       9.65734      7.63714      7.21463        -0.626134     -0.394964     -0.481441
O       9.58583      7.68643     11.52416        -0.231421      0.352802     -0.711598
O       9.57511     11.49605      2.82990         0.136793      0.057062     -0.602004
O       9.59098     11.51390     15.85317         0.170726      0.495487     -0.596915
O       9.50465     11.57494      7.20785         0.747627     -0.845705      0.067489
O       9.57368     11.48447     11.53349        -0.321620     -0.076845     -0.648383
