  # total energy = -7862.79023918 
CRSYTAL
PRIMVEC
    15.010000000000000    0.0000000000000000    0.0000000000000000
     0.0000000000000000   15.010000000000000    0.0000000000000000
     0.0000000000000000    0.0000000000000000    16.400000000000000
PRESSURE
15.3896 15.3408 8.58906 -0.215352 -0.050299 0.067914
PRIMCOORD
320 1
Pb       3.94364      3.72692      4.40031        -0.501298      0.187287     -0.319753
Pb       3.81870      3.78916      0.17955         0.102706     -0.291572     -0.669586
Pb       3.63133      0.14447      4.14304         1.057435     -0.652463      0.042726
Pb       3.69535      0.01969     16.36510         0.305874     -0.174496      0.554671
Pb      14.99790      3.65478      4.04100        -0.016756      0.478669      0.348285
Pb       0.06699      3.75220     16.36997        -0.333196     -0.199348      0.475156
Pb       0.06767      0.01945      4.13379        -0.466740     -0.372347      0.375065
Pb      14.90669      0.01284      0.03037         0.071397      0.366120     -0.491074
Pb       3.82095      3.68664      8.33614         0.872963      0.445471     -0.712381
Pb       3.78217     14.79425      8.34008         0.570437      0.737840     -0.561335
Pb       0.18289      3.80296      8.33116        -1.200402     -0.641956     -0.925015
Pb       0.05353     14.89059      8.24791        -0.303306      0.379561     -0.195607
Pb       3.73389      3.76830     12.23199         0.569371      0.651558      0.500723
Pb       3.74544     14.99544     12.51823        -0.103431     -0.156809     -0.491225
Pb       0.08792      3.70908     12.32527        -0.100713      0.084947     -0.082729
Pb       0.03031      0.02643     12.32192        -0.004022     -0.396562      0.253012
Pb       3.51114      7.51272      4.12080         0.681153     -0.374694      0.108342
Pb       3.71208      7.36593      0.27629         0.435960      0.449086     -0.841525
Pb      14.84124      7.47097      4.11510         0.627715     -0.136476     -0.204541
Pb      14.91872      7.55146      0.04123        -0.034441      0.014269     -0.124603
Pb       3.70323      7.50132      8.08759         0.119857      0.032287      0.695162
Pb      14.97655      7.47295      8.26571         0.095721      0.431166     -0.154388
Pb       3.75004      7.59553     12.30862        -0.024694     -0.714296      0.194999
Pb       0.08357      7.33339     12.36565        -0.227156      1.094561     -0.267180
Pb       3.51125     11.34186      4.18296         0.761480     -0.250537     -0.420061
Pb       3.66047     11.10786     16.32096         0.895870      0.417616      0.110536
Pb      14.92655     11.29298      4.09214         0.037860     -0.048303      0.375734
Pb      14.87193     11.35407      0.02676         0.578174     -0.871669     -0.075103
Pb       3.65850     11.12454      8.33438         0.440130      0.191301     -0.974452
Pb      14.95789     11.14615      8.28123         0.017869      0.162553     -0.601291
Pb       3.70446     11.33680     12.37782         0.391194     -0.712605      0.189252
Pb      14.99242     11.29118     12.34805         0.139634      0.054352     -0.054083
Pb       7.58843      3.64867      4.22001        -0.762549     -0.250742     -0.090062
Pb       7.58976      3.82450     16.39069        -0.878760     -0.316204      0.038219
Pb       7.49472     14.97021      4.25965        -0.555761      0.103869     -0.359356
Pb       7.38300      0.05602      0.03052         0.192740      0.327527      0.150447
Pb       7.57423      3.67128      8.25175        -0.501032     -0.032126     -0.057594
Pb       7.56207     14.92597      8.32483        -0.187911      0.158194     -0.020510
Pb       7.53708      3.71444     12.25243         0.300086     -0.134842      0.191661
Pb       7.60139     14.85059     12.48364         0.265648      0.846419     -0.609222
Pb       7.27807      7.56676      4.07351         0.611029     -0.274968      0.435383
Pb       7.51806      7.52726      0.11154        -0.735641     -0.476832     -0.315518
Pb       7.46114      7.52007      8.39697         0.285408      0.411603     -0.877837
Pb       7.58237      7.39536     12.54834        -0.892913      0.349399     -1.193460
Pb       7.40442     11.37385      4.09833        -0.322994     -0.338955     -0.195271
Pb       7.52986     11.28242      0.10795        -0.435996     -0.571303     -0.387490
Pb       7.36394     11.16659      8.34289         0.519580      0.104214      0.110209
Pb       7.51942     11.13229     12.43651        -0.040956      0.102865     -0.762030
Pb      11.14772      3.72963      4.15283         0.856182      0.323989     -0.000196
Pb      11.27597      3.78181     16.39061        -0.091587      0.183369     -0.091940
Pb      11.32659      0.05884      4.23699        -0.053381     -0.483229      0.080961
Pb      11.05659     14.99037      0.15584         0.657710      0.208320     -0.548023
Pb      11.38367      3.80634      8.15299        -0.320252     -0.199541      0.121660
Pb      11.26839     14.87221      8.30680         0.233071      0.330323     -0.414757
Pb      11.36122      3.72387     12.24860        -0.845790      0.582188     -0.179329
Pb      11.30079      0.15025     12.30550        -0.134704     -0.720550     -0.194139
Pb      11.15554      7.44967      4.20083         0.390369      0.157325     -0.072877
Pb      11.11656      7.50794      0.15285         0.605880      0.003460     -0.524788
Pb      11.09895      7.47778      8.20570         0.166992      0.051113      0.141072
Pb      11.37268      7.36939     12.30727        -0.047178      0.520443     -0.010881
Pb      11.23995     11.29978      4.18790         0.439134     -0.546065     -0.253089
Pb      11.23381     11.13834      0.07365        -0.152111      0.097651      0.180285
Pb      11.03286     11.10241      8.32684         0.232336      0.046499     -0.195778
Pb      11.22267     11.28551     12.26988         0.331164     -0.241232      0.140671
Ti       1.86171      1.84513      2.07709        -0.943434      0.919729     -0.513111
Ti       1.94247      1.92641     14.41574        -0.488010     -0.529760     -0.772942
Ti       1.88092     13.15793      1.95280         0.024806     -0.914854      0.448098
Ti       1.89580     13.15953     14.39771        -0.934810     -0.393360      0.745185
Ti      13.05042      1.93254      2.02130         1.453428     -0.224870     -0.649811
Ti      13.11688      1.94658     14.26104         0.402393     -1.682983      1.827952
Ti      13.09034     13.17046      2.05247        -0.107739     -0.458231      0.345091
Ti      13.06932     13.14001     14.45497         0.619077      1.079986     -1.552339
Ti       1.92393      1.89222      6.24472        -0.380829     -0.203730     -0.249177
Ti       1.87174     13.14170      6.17983        -0.733687     -0.443143      0.096698
Ti      13.16299      1.89196      6.17350         0.565371     -0.022023      0.578835
Ti      13.09168     13.06865      6.21754         1.116329     -0.238046     -0.383134
Ti       2.03512      1.87004     10.20011        -1.066005     -1.165036      0.841056
Ti       2.00902     13.06176     10.23798        -1.432097      0.015073     -0.000319
Ti      13.24482      1.93695     10.23859        -0.551715     -1.433033     -0.763665
Ti      13.20109     13.14810     10.21448        -0.167357     -0.403102      0.285208
Ti       1.82989      5.62576      2.03683        -0.839832     -0.314235      1.702401
Ti       1.91824      5.59952     14.29029         0.147787      0.559483      0.642238
Ti      13.08905      5.67749      2.01362         0.325753     -1.156992     -0.073092
Ti      13.19142      5.63576     14.35552        -0.340900      0.311497      0.198557
Ti       1.82975      5.62160      6.17368         0.405726     -0.392979     -0.994602
Ti      13.14152      5.65209      6.14985        -0.133552     -1.636943     -0.909111
Ti       1.91449      5.60873     10.16675         1.430410      1.178795      0.417252
Ti      13.19119      5.66551     10.15831        -1.113338      0.025576      0.511933
Ti       1.89339      9.46641      2.03987        -0.533972     -0.299520      0.306848
Ti       1.87580      9.31846     14.47875        -0.265722     -0.059164     -1.092172
Ti      13.15456      9.39285      2.07166        -0.484240      0.153189     -0.409869
Ti      13.10299      9.45593     14.20522         0.072105     -1.612323      0.260330
Ti       1.77914      9.36599      6.12031         0.318088      0.485372      0.115506
Ti      13.03647      9.29849      6.15835         0.024103      1.161540      0.267472
Ti       1.90729      9.33554     10.30075        -1.842874     -0.379813     -0.200152
Ti      13.07073      9.39500     10.21119         0.485532     -0.453308      0.649940
Ti       5.59268      1.90332      2.06551         0.064742     -1.050294     -0.273783
Ti       5.62310      1.86037     14.29375         0.515378      1.956810      1.433091
Ti       5.55585     13.13217      1.90693        -0.128766     -0.150946      0.811971
Ti       5.69877     13.10461     14.38855        -0.628182     -0.789340      0.278499
Ti       5.69949      1.83008      6.31008        -0.275318     -0.294689      0.623267
Ti       5.60976     13.06263      6.23948        -0.503443     -0.042491     -0.830001
Ti       5.71269      1.82381     10.43488         1.293870      0.289275     -1.758862
Ti       5.71135     13.17617     10.35629         0.153923     -1.807589      0.092872
Ti       5.54169      5.60929      2.27768        -0.043776      0.808112     -0.967740
Ti       5.59597      5.63993     14.37713        -0.777708     -1.423302     -0.625866
Ti       5.69915      5.70617      6.24415        -1.643502     -0.549881      0.481399
Ti       5.70810      5.68696     10.15724        -1.105382     -0.901947      1.151322
Ti       5.59121      9.36743      2.03585        -0.499628      0.759963      0.178714
Ti       5.63511      9.30000     14.28771        -0.560298      0.656606      0.942840
Ti       5.59506      9.38735      6.01827        -0.907230      0.516683      1.082993
Ti       5.54869      9.33234     10.26117         1.227664      1.624952      1.724046
Ti       9.36337      1.90254      2.07149        -0.850302     -0.215262     -0.241985
Ti       9.37359      1.89072     14.39981        -0.000699     -0.055443     -1.092068
Ti       9.34590     13.10340      2.12453        -0.271222      0.022164     -0.400401
Ti       9.44330     13.09928     14.37063        -0.318918     -0.166292     -0.265452
Ti       9.48010      1.81502      6.20357        -0.405588     -0.438697      0.379587
Ti       9.32548     13.00494      6.17946         0.230827      0.834103      0.643450
Ti       9.49599      1.86929     10.16499        -0.994287      0.027911      1.672149
Ti       9.44674     13.09404     10.32690        -0.903580     -0.483121     -0.401862
Ti       9.30044      5.62167      2.10173         0.098297     -0.145905     -0.437163
Ti       9.38391      5.65726     14.32762         0.008026     -1.262703      1.104067
Ti       9.28501      5.60386      6.07222         0.983118      0.328411      1.480876
Ti       9.38264      5.63915     10.27107         1.264558     -1.082732     -0.429436
Ti       9.31729      9.32377      2.11787         0.232055      0.468541     -0.139122
Ti       9.40951      9.33578     14.32687         0.024645      0.144760      0.422223
Ti       9.26595      9.33731      6.10943         0.069233     -0.136808      0.098751
Ti       9.32672      9.27882     10.36159        -0.361607      1.168212     -0.467089
O       1.83405      1.83372      0.19013        -0.115354     -0.113744     -0.171908
O       2.06856      1.88394     12.50447        -0.449525     -0.104345     -0.236964
O       1.90059     13.07594      0.12411        -0.144228      0.203792      0.219612
O       1.80645     13.14946     12.59391         0.272955     -0.059515     -1.665732
O      13.20973      1.88945      0.14552        -0.209557     -0.058199      0.036264
O      13.12325      1.86116     12.46211         0.227823      0.113682     -1.357493
O      12.98724     13.04086      0.15521        -0.042224      0.201778     -0.223713
O      13.18959     13.13065     12.59039         0.132054     -0.212421     -0.720284
O       1.91685      1.87351      4.36426        -0.023342     -0.095597     -0.398472
O       1.67580     13.19282      4.33090         0.788668     -0.156395     -0.063895
O      12.99669      1.92242      4.32617        -0.058615     -0.348495     -0.836744
O      13.18156     13.04902      4.32971        -0.469686      0.391365     -0.506245
O       1.87932      1.81481      8.39989         0.475396      0.316483     -0.542729
O       1.92510     13.07790      8.36211        -0.194325      0.253682      0.269438
O      12.97474      1.88940      8.42412         0.606669     -0.283380     -0.156841
O      13.18929     13.09068      8.34932        -0.336054     -0.139569      0.131259
O       1.86141      5.56619      0.24063         0.101831      0.251789     -0.974079
O       1.91695      5.60568     12.45607        -0.315499     -0.198170     -0.851915
O      13.18205      5.65374      0.09786        -0.026224     -0.254281     -0.200629
O      13.23707      5.56184     12.45817        -0.333576      0.203717     -0.107594
O       1.62612      5.68727      4.30025         0.522279     -0.229741      0.299304
O      13.21090      5.59263      4.22276        -0.674660      0.053129      0.425646
O       1.77731      5.58982      8.31299         0.451945      0.118850      0.133659
O      13.11342      5.62901      8.33435         0.317330     -0.068667     -0.435669
O       1.82218      9.51102      0.18895        -0.197859     -0.456159     -0.454289
O       1.91077      9.26954     12.61733        -0.324594      0.339071     -1.107536
O      13.25088      9.38824      0.17354        -0.795886      0.115008      0.196601
O      12.92915      9.32866     12.34799         0.762255      0.188013      1.041240
O       1.88118      9.28240      4.29104        -0.503382      0.412464      0.087653
O      12.98548      9.28297      4.32032        -0.112970     -0.144162     -0.851176
O       1.96596      9.38570      8.44070        -0.554068     -0.140809     -0.550107
O      12.94208      9.34753      8.37954         0.423685      0.178045     -0.681392
O       5.57294      1.91300      0.20440        -0.041561     -0.051176      0.844334
O       5.53029      1.79242     12.48789         0.366339      0.102487     -1.754523
O       5.66754     13.02607      0.07802         0.122168      0.617625     -0.422022
O       5.57047     13.30303     12.55830         0.303478     -0.600496     -0.855624
O       5.62499      1.81935      4.47355        -0.107881      0.295347     -1.591346
O       5.70834     12.97137      4.38952        -0.336579      0.534294     -0.067556
O       5.75582      1.84512      8.40216        -0.136760      0.053158      0.269900
O       5.69059     13.00367      8.48716        -0.204892      0.711094     -0.872580
O       5.41980      5.51484      0.36674         0.262606      0.574487     -0.467244
O       5.39497      5.61407     12.55131         1.189684      0.341854     -0.216889
O       5.54921      5.77980      4.44051         0.421345     -0.650896     -1.574725
O       5.67469      5.62608      8.35734         0.012056      0.026792     -0.165212
O       5.56293      9.36011      0.24358         0.216952     -0.286345     -1.226305
O       5.55445      9.27682     12.48136         0.122844      0.037171     -0.046826
O       5.49202      9.29377      4.22749         0.641670      0.619458     -0.509845
O       5.55809      9.55499      8.49991         0.030192     -0.629045     -1.254105
O       9.27587      2.01508      0.22075         0.370669     -0.789555     -0.162820
O       9.31011      1.84265     12.54072         0.179724      0.051767      0.622170
O       9.34502     13.00369      0.23875         0.229460      0.563259     -0.476703
O       9.36516     12.98446     12.50583        -0.342250      0.850075     -0.248301
O       9.48530      1.82344      4.33649        -0.138946      0.335259     -0.824830
O       9.38312     13.03696      4.31525        -0.338080      0.076350     -0.938438
O       9.57840      1.82172      8.37720        -0.522422     -0.006355     -0.908754
O       9.29924     13.12181      8.44344         0.478454     -0.113720     -0.490694
O       9.24943      5.60795      0.21792         0.357954      0.323043      0.073893
O       9.33797      5.54982     12.54340         0.041998      0.412998     -1.286513
O       9.26143      5.53383      4.28734         0.250069      0.282830     -1.242877
O       9.28098      5.73656      8.44526         0.253758     -0.327589     -0.702801
O       9.22085      9.12092      0.16612         0.605458      0.977634      0.088806
O       9.38740      9.30304     12.50051        -0.141206     -0.154284     -0.810190
O       9.33374      9.31122      4.25441         0.061458      0.072387     -0.505784
O       9.23757      9.28578      8.40089         0.659591     -0.086346     -0.076743
O       3.64401      2.09940      2.31341         1.364837      0.060301      0.316925
O       3.80721      1.44728     14.58528        -1.346026      0.353854     -0.206669
O       3.72514     12.87651      2.21283        -0.211481     -0.117866      0.194634
O       3.77849     13.46811     14.53672        -0.761197     -0.284064      0.010912
O      14.95661      1.53539      2.33871        -0.078420      0.197601     -0.187526
O       0.01380      2.24808     14.31649         0.169821     -0.025150      0.662491
O      14.94850     13.32533      2.12816         0.247266      0.182759      0.148594
O      14.97225     12.82133     14.59756        -0.144261     -0.145586      0.170266
O       3.82250      2.24369      6.44127        -1.075194     -0.261647     -0.132669
O       3.68916     12.60537      6.28347         0.665178      1.252290      0.408501
O       0.01024      1.55369      6.35081        -0.129720     -0.394134      0.138658
O      14.97665     13.43589      6.39333         0.497392     -0.120171      0.188191
O       3.87569      2.23537     10.29948        -1.103731     -0.436024      0.380649
O       3.82929     12.75703     10.39892        -1.124037      0.418855      0.371155
O       0.10833      1.57695     10.37197        -0.646643      0.141603      0.472788
O       0.02783     13.41044     10.39601         0.386633     -0.074276      0.322448
O       3.65784      5.44168      2.47567        -0.741867     -0.461185     -0.229421
O       3.66058      6.02471     14.52042         1.047455     -0.067651      0.619624
O      14.91318      5.97616      2.18848         1.253076     -0.208617     -0.112394
O       0.02525      5.16391     14.42134        -0.737392      0.188165      0.249457
O       3.72001      5.41007      6.34220        -0.248704     -0.517863      0.250288
O      14.95482      5.93632      6.32226         0.023043      0.419046      0.428335
O       3.80483      5.34501     10.37034        -0.431308     -0.003330     -0.216582
O       0.07034      5.90295     10.28875        -0.732326     -0.077249      0.614720
O       3.73589      9.65683      2.21691        -0.491635      0.375726      0.089889
O       3.70906      9.01426     14.59595         0.343636     -0.076389      0.337155
O      15.00250      9.27046      2.22815        -0.298961     -0.705146      0.378903
O      14.93495      9.79828     14.45934        -0.234199     -0.425952      0.140484
O       3.67719      9.77649      6.26895         0.347626     -0.672448      0.332736
O      14.90866      8.93545      6.34219         0.729762      0.106283      0.128115
O       3.71503      9.66078     10.48626         0.440971      0.276215      0.550279
O      14.96789      8.95992     10.36669         0.211755      0.715287      0.208296
O       7.43218      1.70080      2.33617         0.178912     -0.147348      0.190203
O       7.44050      2.20345     14.65066         0.148090     -0.315896     -0.401942
O       7.41030     13.41419      2.24318         1.665638     -0.056470      0.344294
O       7.52104     12.63150     14.41588        -0.148642      1.057533      0.485037
O       7.59301      1.63288      6.34881        -0.157795     -0.457420      0.228000
O       7.48923     13.53500      6.39115         0.247085     -0.653914     -0.204377
O       7.63402      1.61687     10.51170        -1.647666      0.037243     -0.026819
O       7.50714     13.50385     10.47360         0.584353     -0.396221      0.292044
O       7.40623      5.96467      2.30414         0.431788     -0.468845     -0.049853
O       7.43584      5.15712     14.49286         0.156883      0.923390     -0.048170
O       7.48079      5.98197      6.35671         0.659085      0.053388      0.209661
O       7.57802      5.88358     10.40885        -1.591936      0.346705      0.783938
O       7.42281      8.88594      2.12866         0.473942      0.713533      0.665871
O       7.47356      9.70958     14.44860         0.057034     -0.388852      0.280331
O       7.41932      8.99497      6.34929         0.418293      0.136345     -0.132426
O       7.48606      9.00195     10.50749        -0.431685      0.172611      0.071221
O      11.21451      2.18248      2.00948        -0.062927      0.085752      0.804216
O      11.24517      1.41389     14.41000        -0.342436      0.803243      0.896685
O      11.25912     12.72346      2.14876        -1.763689      0.610699      0.449913
O      11.21514     13.63259     14.29265        -0.275147     -0.743706      1.382745
O      11.28262      2.18734      6.35977        -0.174651     -0.061319     -0.202581
O      11.28133     12.63152      6.30463        -1.200501      0.409032      0.335299
O      11.26436      2.14506     10.54322         1.145204     -0.305498     -0.047943
O      11.26895     12.78031     10.48856         0.390326      0.491209     -0.572815
O      11.23298      5.28673      2.07381        -0.541800      0.301955      0.650603
O      11.20186      5.91216     14.54213         0.666164     -0.004056      0.166036
O      11.19862      5.23724      6.22890         0.262799      0.343669      0.061356
O      11.31080      5.26802     10.29289         0.099561      0.392398      0.842439
O      11.17300      9.67689      2.02313         0.045047     -0.555567      0.511014
O      11.20087      8.83763     14.50591         0.595524      0.724951      0.413318
O      11.15380      9.76201      6.29715        -0.175440     -0.627161      0.294140
O      11.18691      9.70006     10.43094         0.423205     -0.177693     -0.262327
O       1.48665      3.72391      2.16930         0.237168      0.281254      0.117493
O       2.30835      3.72968     14.55273        -0.406811      0.195431      0.209509
O       2.10381     14.96416      2.26977        -0.411420      0.343330      0.029924
O       1.47537      0.04349     14.54203         0.613968     -0.542827      0.200411
O      13.45691      3.72803      2.15022        -0.397212      0.411712      0.130074
O      12.67504      3.71804     14.41694         0.585871      0.737007      0.465593
O      12.69094     15.00710      2.17385         0.492490     -0.401533      0.057152
O      13.50038      0.00370     14.49481        -0.241079      0.027373      0.367597
O       1.44024      3.71541      6.33561         0.983101      0.653446      0.055565
O       2.25731      0.02932      6.29026        -0.263730     -0.959947      0.587695
O      13.47403      3.72402      6.33395        -0.527004      0.389491      0.398554
O      12.77577     14.95321      6.29720        -0.004585      0.158995      0.190944
O       1.61429      3.75707     10.37866         0.602626     -0.744894      0.087892
O       2.26228     14.90664     10.37413        -0.125668      1.427641      0.309530
O      13.46173      3.73791     10.39724        -0.072625      0.421648      0.337840
O      12.79527     14.96765     10.36560         0.657567      0.555465      0.219339
O       2.11211      7.56253      2.19431        -0.519632     -0.477356     -0.192450
O       1.40231      7.42164     14.46821         0.102905      0.555120      0.735542
O      12.83098      7.50162      2.17242        -0.256738      0.494608      0.345995
O      13.49393      7.50199     14.42414        -0.173621     -0.513643      0.030358
O       2.21307      7.47991      6.39374        -1.133752      0.662041     -0.221952
O      12.64590      7.41612      6.31975         0.323645      0.647173      0.051020
O       2.24219      7.50327     10.34771        -0.451638     -0.947718      0.449907
O      12.76477      7.50049     10.34469         0.381049     -0.831974      0.227747
O       1.66517     11.29018      2.41971        -0.051934      0.477458     -0.429796
O       2.14452     11.22190     14.48775         0.076152      0.641533      0.080333
O      13.30065     11.22525      2.35200        -0.145835      0.591167     -0.345419
O      12.61130     11.19240     14.45655         0.462737      1.043413      0.362153
O       1.47080     11.24196      6.33648         0.036460     -0.465686     -0.162457
O      13.54326     11.09833      6.25069        -0.619040      1.247446      0.511884
O       1.59065     11.20872     10.42746        -0.046375      0.592341      0.574875
O      13.47328     11.24985     10.41141        -0.342201     -0.164714      0.175649
O       5.70075      3.78416      2.37231         0.257433     -1.099661      0.579504
O       5.19161      3.72919     14.46728        -0.012438     -0.037770      0.524291
O       5.28491     14.97267      2.16517         0.304764      1.230783      0.293631
O       5.88151      0.02136     14.52678         0.733688     -1.240500      0.604950
O       5.93400      3.78933      6.38640         0.009731      0.069574     -0.113959
O       5.26787     14.96245      6.24603         0.218730     -0.323815      0.881927
O       5.95440      3.78210     10.34787        -0.008448     -0.398159      0.524998
O       5.30356     15.00934     10.32616        -0.022020      0.479016      0.582933
O       5.11990      7.51048      2.28969         0.998761     -0.259931     -0.085035
O       6.01512      7.45977     14.55290        -0.384766      0.099056      0.094024
O       5.28093      7.58942      6.41746         0.279810     -0.530119      0.067974
O       5.30403      7.52797     10.37737         0.218644     -1.078494      0.061793
O       5.94128     11.29701      2.08679        -0.065967     -1.151201      0.695020
O       5.23524     11.17843     14.45226         0.222990      0.823407     -0.131886
O       6.00177     11.20595      6.39309        -0.232967      0.215348     -0.272986
O       5.92305     11.26693     10.61513        -0.098741     -0.220911     -0.023518
O       9.08477      3.76086      2.30254        -0.060669      0.088996      0.422419
O       9.62840      3.71992     14.55501         0.166831      0.341412      0.264036
O       9.60487      0.05039      2.19116        -0.021183     -1.504151      0.227677
O       8.87825     15.00468     14.60946         0.854401     -0.983561      0.178622
O       9.07908      3.73774      6.32867        -0.003831     -0.253277      0.058086
O       9.72158     14.89889      6.25838         0.047215      0.744920      0.382852
O       9.17306      3.76268     10.52004        -0.067345     -0.514637     -0.312847
O       9.65661     14.96289     10.45659         0.241194      0.563982     -0.120186
O       9.66458      7.46960      2.28248        -0.143079     -0.518987      0.124207
O       8.90737      7.48045     14.46316         0.387005     -0.625093      0.502662
O       9.66037      7.46476      6.25903         0.116489      0.198388      0.036014
O       9.74104      7.48717     10.44412         0.071541     -0.683219      0.505582
O       8.94063     11.17426      2.16437         0.419034      0.707735      0.299798
O       9.76522     11.19273     14.39662        -0.176386      0.491420      1.067756
O       8.87879     11.19569      6.26864         0.526652      0.396156      0.429504
O       9.07377     11.18741     10.35698         0.030801      0.666498      0.630389
