  # total energy = -7863.35727920 
CRSYTAL
PRIMVEC
    15.010000000000000    0.0000000000000000    0.0000000000000000
     0.0000000000000000   15.010000000000000    0.0000000000000000
     0.0000000000000000    0.0000000000000000    16.400000000000000
PRESSURE
16.9253 17.0183 8.82395 -0.053484 -0.276919 0.009575
PRIMCOORD
320 1
Pb       3.63769      3.59165      4.12287         0.097671      0.751965     -0.639668
Pb       3.74445      3.73732     16.30592        -0.035778      0.581487      0.489861
Pb       3.82203     14.92965      4.18644        -0.612660     -0.284591     -0.011924
Pb       3.79537      0.06401     16.34754        -0.111118     -0.173674      0.254139
Pb      14.97030      3.79493      4.25958         0.544820     -0.314380     -1.044685
Pb      14.90968      3.82736      0.05924         0.484342     -0.698183     -0.094545
Pb      14.94086     14.99317      4.28123         0.314841     -0.618262     -0.640199
Pb       0.02244      0.03751     16.25112        -0.215435      0.294042      0.106979
Pb       3.78652      3.70691      8.12774        -0.131459     -0.038793      1.159776
Pb       3.85512     14.99204      8.32617        -0.547545     -0.130040      0.042906
Pb       0.08149      3.70180      8.07183        -0.168353      0.122160      1.277104
Pb       0.16127     14.97858      8.28847        -0.555353     -0.108481     -0.494715
Pb       4.00627      3.72781     12.35189        -0.756909      0.291033      0.014742
Pb       3.73326      0.00960     12.33103        -0.211122      0.098074     -0.694134
Pb       0.02798      3.78760     12.27704         0.114221     -0.130237     -0.412956
Pb      14.94869     14.99347     12.23758         0.267723      0.002491      0.311012
Pb       3.60441      7.67270      4.22915         0.681243     -0.534063     -0.586129
Pb       3.77167      7.54500     16.37265        -0.197012     -0.227030     -0.195097
Pb      14.86268      7.55051      4.13263        -0.114813     -0.423796     -0.202718
Pb      14.93285      7.46147      0.03280         0.235207      0.367711     -0.333599
Pb       3.68179      7.52329      8.32394         0.425524     -0.115533     -0.641572
Pb       0.00718      7.47252      8.07455        -0.352361      0.151547      0.483576
Pb       3.75887      7.31493     12.40674        -0.227561      0.131344     -0.008324
Pb       0.05577      7.49537     12.23700        -0.346332     -0.296140      0.917317
Pb       3.59234     11.23039      4.01199         0.279526     -0.155392      0.097771
Pb       3.67670     11.31303      0.07182         0.183646     -0.410221      0.294422
Pb      14.83547     11.18902      4.20956         0.019519      0.788257     -1.014012
Pb      14.95312     11.27004      0.00686         0.219332     -0.333948      0.533597
Pb       3.52854     11.17882      8.25800         0.795662      0.162305     -0.056808
Pb      14.95771     11.15066      8.13969        -0.298916      0.417014      0.514204
Pb       3.68983     11.11236     12.49119         0.145861      0.383148     -0.664574
Pb      14.97394     11.18066     12.31185        -0.268157      0.226641     -0.219218
Pb       7.44976      3.83379      4.28846         0.256681     -0.069662     -0.310832
Pb       7.50053      3.74218      0.15352         0.232754      0.156597     -0.141336
Pb       7.49583      0.06064      4.26783         0.341859     -0.404701     -0.784019
Pb       7.60282      0.03877     16.39703        -0.153886     -0.256039      1.069742
Pb       7.61928      3.80794      8.19246        -0.259905     -0.397330      0.421453
Pb       7.41733     14.85144      8.33052         0.743809      0.862328      0.148801
Pb       7.59481      3.65431     12.39225        -0.668930      0.399093      0.049908
Pb       7.51770      0.01632     12.28207        -0.019960      0.013448     -0.571649
Pb       7.36267      7.46881      4.20337        -0.065944     -0.255377     -0.417704
Pb       7.49020      7.40319      0.08961         0.120464      0.396099      0.742759
Pb       7.50775      7.47895      8.08738        -0.141791     -0.794348      0.701874
Pb       7.58487      7.48030     12.34621         0.074156      0.262940     -0.066328
Pb       7.16639     11.22190      4.19457         1.105933      0.784845     -0.817660
Pb       7.39110     11.29271      0.03830         0.232286     -0.111657      0.599976
Pb       7.38132     11.09790      8.25602        -0.037803      0.140258      0.970470
Pb       7.51734     11.20874     12.49419         0.097831     -0.088728     -0.862523
Pb      11.39848      3.67931      4.24651        -0.761256      0.225560     -0.740831
Pb      11.34808      3.84620      0.07520        -1.083153     -0.902508      0.213890
Pb      11.28061      0.00240      4.22612        -0.404897     -0.055015     -0.881951
Pb      11.36429      0.11596     16.33815        -0.496385      0.045549      0.880389
Pb      11.44768      3.73289      8.25495        -0.953297     -0.087883      0.293687
Pb      11.33345     14.90554      8.21334        -0.739930      0.410719      0.448100
Pb      11.32664      3.75105     12.24892        -0.310356     -0.364382      0.137369
Pb      11.31574     14.86361     12.32459        -0.315117      0.177310     -0.482868
Pb      11.15077      7.48124      4.15224        -0.243929      0.141990      0.135563
Pb      11.24670      7.41950      0.10278        -1.102801      0.597544      0.634067
Pb      11.22694      7.52885      8.12631        -0.094368     -0.259606      0.327150
Pb      11.24371      7.44768     12.41860        -0.312669      0.376527     -0.982899
Pb      11.03936     11.32778      4.21366         0.547997     -0.082200     -0.572930
Pb      11.11814     11.33942      0.01073        -0.160830      0.104363      0.908925
Pb      11.13146     11.23346      8.21344         0.735504      0.156717      0.170007
Pb      11.26456     11.14559     12.43782        -0.387284      0.413476     -1.364966
Ti       1.77116      1.87088      1.98167         0.879747      0.782575      0.138901
Ti       1.93242      1.95011     14.34524        -1.812827     -0.173231     -0.429843
Ti       1.80050     13.19179      2.06817         0.061616     -1.377574      0.087118
Ti       1.88712     13.12339     14.43301        -1.040957      0.462909     -1.465987
Ti      13.19201      1.86716      2.19961        -2.461031     -0.280265     -1.328035
Ti      13.15193      1.92574     14.29268         0.632591     -0.436300     -0.384123
Ti      13.11203     13.09234      1.94855        -0.201396      0.150085      2.511798
Ti      13.12022     13.04407     14.39508         0.136162      1.995682     -1.062302
Ti       1.92530      1.83909      6.21519        -0.318261     -0.179474      0.416712
Ti       1.94056     13.11364      6.14507        -0.744928      0.333614      0.673152
Ti      13.14596      1.85635      6.23604        -0.151425     -0.114281      1.674889
Ti      13.09723     13.11737      6.25962         1.043729     -0.260383     -0.468379
Ti       1.83368      1.85352     10.23122         0.463858      0.886803      0.662724
Ti       1.83844     13.08845     10.25188         0.491916      0.471224      0.476476
Ti      13.07280      1.81967     10.19170         1.362883      0.694794      0.406347
Ti      13.12889     13.08727     10.21552        -0.147415     -0.531865      0.949751
Ti       1.85036      5.68747      2.07966         0.147142     -2.568549     -0.090694
Ti       1.86426      5.65833     14.48799         0.207106     -0.330712     -0.764429
Ti      13.06414      5.63452      2.05112         0.081564     -0.993707      2.266118
Ti      13.09133      5.68104     14.36820         1.141404     -0.951152      0.335665
Ti       1.90361      5.60012      6.08617         0.188359      0.910865      0.324211
Ti      13.17024      5.57139      6.17241        -0.987346      1.336130     -0.126692
Ti       1.89340      5.62832     10.15614        -0.355990     -0.810655      1.114816
Ti      13.09286      5.68038     10.20521         0.320617     -2.210830      0.066545
Ti       1.64573      9.29313      2.03244         1.580365      1.948570      0.290830
Ti       1.79814      9.36647     14.40286        -0.047072     -0.119545      0.059373
Ti      12.89350      9.29881      2.00424         0.898394      1.379731      0.410790
Ti      13.00339      9.37547     14.40636         2.336812     -0.515355     -1.004785
Ti       1.78326      9.40039      6.16316         0.844624     -0.572504     -0.099154
Ti      12.99269      9.40065      6.11105         0.942932     -0.630534      0.804354
Ti       1.90755      9.33164     10.33584        -0.628015      0.077625      0.149922
Ti      13.11721      9.28067     10.26484        -0.082855      1.459464      0.321253
Ti       5.62441      1.87832      2.18858         0.574005      0.144103     -1.033766
Ti       5.70769      1.81532     14.47006         0.700872      1.329521     -0.769096
Ti       5.55270     13.15678      2.07109         0.821917     -1.030506     -0.096301
Ti       5.59368     13.13639     14.39528         0.648690     -0.778441     -0.269487
Ti       5.64052      1.80625      6.20017         0.488374     -0.077893      0.454704
Ti       5.63269     13.03344      6.29349        -0.949220      0.406755     -0.851070
Ti       5.63911      1.89105     10.26108        -0.018022     -0.386313      1.090193
Ti       5.62341     13.02567     10.33866        -0.297501     -0.229227      0.508875
Ti       5.53816      5.59394      2.11790         0.083661     -0.035902      0.268156
Ti       5.75378      5.62016     14.41452        -1.137373     -0.412397     -0.479042
Ti       5.54488      5.53750      6.22206         1.044895      0.825415     -0.888127
Ti       5.64723      5.64022     10.22631        -0.615376     -1.370641      0.923237
Ti       5.53302      9.33219      2.04167        -0.279361     -0.250953      0.305787
Ti       5.62804      9.37080     14.42531        -0.349051     -0.475951     -0.509354
Ti       5.57005      9.33108      6.22323        -1.182486     -0.490243      1.846985
Ti       5.63495      9.21664     10.35203         0.353537      2.828439     -0.486370
Ti       9.34355      1.91387      2.13440         1.672018     -1.157660      0.655771
Ti       9.43050      1.99095     14.35506         0.306442     -0.246145     -0.201037
Ti       9.36067     13.15224      2.23270        -0.049351      0.329543     -0.596959
Ti       9.35794     13.22902     14.40279         0.107154     -0.641069     -0.645716
Ti       9.36608      1.91028      6.21243         0.584554     -1.125782      0.244712
Ti       9.29667     13.14266      6.21958         0.769226      1.298173      0.139158
Ti       9.36859      1.85521     10.21878         0.363176     -0.292604     -0.787132
Ti       9.35292     13.03844     10.22317         1.094989      0.660905      0.733144
Ti       9.32145      5.62503      2.20746        -0.170820      0.474987     -0.835295
Ti       9.41678      5.72650     14.45127        -1.010340     -1.286368     -0.199557
Ti       9.45092      5.63326      6.14920        -1.418027     -0.292792      0.113561
Ti       9.31806      5.54016     10.32069         1.071648      1.011999     -0.772280
Ti       9.23310      9.48305      2.15802         0.592564     -1.204569      0.232297
Ti       9.38134      9.41238     14.49178        -1.311760     -0.580673     -0.915755
Ti       9.22351      9.42848      6.12130         1.221568     -0.673487     -0.153053
Ti       9.37192      9.35390     10.15662        -0.043731     -0.542175      2.870476
O       1.72984      1.96614      0.13946         0.992044     -0.530197      0.742101
O       1.75602      1.78550     12.54044         0.031345      0.590807     -0.243097
O       1.97011     13.04634      0.20912        -0.367726      0.471908     -0.384587
O       1.81390     13.17132     12.57099        -0.111580     -0.148266      0.103764
O      13.06828      1.83925      0.35103         0.281188      0.358075     -0.350258
O      13.13313      1.99708     12.44799         0.354968     -0.443696      0.633284
O      12.99039     13.19588      0.20144         0.583818     -0.369581     -0.946523
O      13.09319     13.00466     12.51013        -0.095227      0.279844      1.130774
O       1.91959      1.76027      4.42157        -0.156635      0.143959     -0.849607
O       1.97523     13.10814      4.33836        -0.380871      0.377706     -0.571032
O      13.24229      1.83692      4.45382         0.041445      0.055768     -1.337839
O      13.14136     13.01621      4.41185        -0.139970      0.059242      0.175944
O       1.97898      1.86332      8.39580        -0.121588      0.004400      0.336596
O       1.79869     13.11652      8.40553         0.699009     -0.578933      0.494871
O      13.17559      1.79178      8.36268        -0.184533      0.374546      0.029754
O      13.14526     13.11110      8.43255         0.062010     -0.100684     -1.550277
O       1.80086      5.40952      0.21452         0.257013      1.012184      0.546895
O       1.76146      5.70495     12.65841         0.485866     -0.122922     -0.715484
O      13.14319      5.66294      0.24436        -0.543271      0.158591     -0.598355
O      13.00504      5.62229     12.60028         0.208445     -0.177946     -0.992579
O       1.86053      5.65676      4.26627         0.034506      0.037471     -0.003928
O      13.07845      5.56092      4.31414         0.354228      0.441896      0.827995
O       1.85686      5.83098      8.39247         0.116217     -0.851119     -0.307057
O      13.04805      5.68518      8.38485         0.159222      0.198440     -0.368319
O       1.73440      9.29047      0.22578         0.279116      0.452424     -0.324101
O       1.79090      9.28342     12.57466         0.186878      0.291600     -0.751639
O      12.97099      9.09018      0.17279         0.466020      0.835556      0.015076
O      13.13559      9.31785     12.46814        -0.437174      0.599673      1.131209
O       1.84835      9.30980      4.30317        -0.763584     -0.029381      0.162000
O      13.05488      9.47353      4.31937         0.246373     -0.241211     -0.623280
O       1.83371      9.34495      8.46736         0.149249      0.193687     -0.119847
O      13.24616      9.38959      8.45343        -0.650944     -0.481895     -0.128822
O       5.74434      1.66049      0.23667        -0.845035      0.801401      0.635994
O       5.91867      1.86436     12.60476        -0.705001     -0.120129      0.107307
O       5.54055     13.12091      0.17292        -0.632916      0.192704      1.228397
O       5.75032     13.04348     12.56234        -0.181251      0.175207      0.063394
O       5.73102      1.95424      4.36198        -0.713007     -0.609132     -0.537818
O       5.54029     13.09192      4.43866         0.065732     -0.109836     -0.063893
O       5.48164      1.89652      8.48952         0.229258     -0.762470     -1.290324
O       5.55276     13.20469      8.48561         0.500628     -0.606371     -1.160022
O       5.72090      5.66331      0.27051        -0.279744     -0.592811     -0.259092
O       5.54410      5.61036     12.55608         0.681945      0.420707      0.222007
O       5.58976      5.49275      4.36935        -0.321325      0.084094      0.270556
O       5.57516      5.66024      8.45162         0.243370     -0.146659     -1.006134
O       5.48438      9.32161      0.22672         0.300501      0.107876      0.049119
O       5.58847      9.41454     12.54790         0.495549     -0.487332      0.166523
O       5.64020      9.46286      4.48681        -0.288438     -0.887400     -2.180167
O       5.64230      9.24596      8.45009        -0.160825      0.690619     -0.003150
O       9.43855      1.75769      0.30405         0.063868      0.653974     -0.833265
O       9.27570      1.92508     12.51386         0.344913     -0.604492      0.459119
O       9.51367     13.12980      0.37805        -0.638127     -0.417973     -0.592722
O       9.36658     12.97254     12.52764         0.121862      1.167928      1.075768
O       9.33287      1.82513      4.35559         0.101041     -0.061141      0.182216
O       9.36933     13.19041      4.38578         0.233883      0.219912      0.379133
O       9.36665      1.98259      8.37350         0.087562      0.106033      0.573782
O       9.42412     13.20518      8.39985        -0.368491     -0.811082     -0.296294
O       9.28316      5.56678      0.19950         0.015249      0.138297      0.915125
O       9.54234      5.68965     12.57313        -0.872753      0.349367      0.044774
O       9.48891      5.60370      4.27783        -0.400711      0.024503      0.237695
O       9.33789      5.51222      8.44318         0.225443      0.229825      0.231643
O       9.44038      9.50279      0.34699        -0.477462     -0.090894     -1.150663
O       9.31160      9.27882     12.60503         0.174823      0.134857      0.510300
O       9.25424      9.22919      4.33156         0.175095      0.556301      0.246949
O       9.29206      9.32557      8.42255         0.113143      0.607476     -2.302499
O       3.78193      2.21016      2.19569        -0.227063     -1.146489      0.164177
O       3.79997      1.68128     14.40674        -0.200006     -0.389125      0.816837
O       3.67212     12.84739      2.33800         0.517156      0.448148     -0.321819
O       3.70948     13.35334     14.42696         1.274150      0.289029      0.789116
O      14.97164      1.71698      2.39229         1.751098     -0.780643      0.294744
O       0.00969      2.26030     14.70133        -0.603056     -0.795129     -0.795256
O      14.99005     13.33856      2.34883        -0.818246     -0.127971      0.010687
O      14.95589     12.93543     14.72412         0.660675     -0.525294     -0.103120
O       3.78034      2.11990      6.44017        -0.255509     -0.381219     -0.463542
O       3.78664     12.73965      6.37099        -0.396313      0.290868      0.683229
O       0.05998      1.91501      6.53202        -0.324069     -0.926114     -0.462388
O       0.05118     13.21372      6.29509        -0.896932     -0.123164      0.312767
O       3.79186      2.02571     10.77340        -0.481977     -0.433025     -0.761146
O       3.76480     12.82945     10.47843        -0.467755      0.529761      0.262955
O      14.96366      1.63420     10.45216         1.244054      0.079825     -0.082965
O      14.97411     13.38614     10.40789         1.313948     -0.189065      0.438918
O       3.71311      5.23789      2.30063         0.012092      0.418965     -0.257096
O       3.79288      5.79590     14.62607        -0.282550      0.497074      0.420928
O      14.95470      5.89425      2.26709         0.022447      0.227496      0.187701
O      14.95580      5.26735     14.58867        -0.484509      0.905743      0.174146
O       3.74000      5.33499      6.50589        -0.311073      0.413426     -0.617616
O       0.02593      5.69056      6.40056        -0.341374      0.686261     -0.168674
O       3.74324      5.36872     10.55330        -0.210110     -0.086611     -0.069414
O      14.97457      5.99633     10.46205         0.410057     -0.672803     -0.170999
O       3.69113      9.43651      2.38025        -0.536407      0.087923     -0.175233
O       3.73518      9.10447     14.48248         0.168832     -0.050745      0.613135
O      14.87274      8.99946      2.26672        -0.139651     -0.291252      0.094821
O      14.93816      9.67339     14.60794        -0.142266     -0.068428      0.147173
O       3.71526      9.62011      6.31435        -0.076394     -0.182620      0.592634
O      14.96845      9.26197      6.36744         0.013185     -0.159731     -0.141109
O       3.73968      9.52693     10.53375        -0.264434      0.809466      0.036396
O       0.00195      9.02113     10.52421         0.201749      0.560461     -0.324575
O       7.55148      1.51301      2.28137        -1.247719     -0.121091      0.138153
O       7.54128      2.15469     14.66306         0.586256      0.031116      0.333539
O       7.43328     13.20384      2.43153        -0.398297      0.591305     -0.613994
O       7.47909     12.87893     14.84154         0.629032      0.345379     -1.047088
O       7.51875      1.50065      6.36528        -1.076947      0.244641      0.348097
O       7.49866     13.50001      6.36144        -0.703596     -0.129634      0.440131
O       7.52492      1.71005     10.37419        -0.221656     -0.644114      0.325807
O       7.57168     13.28448     10.37250        -1.113254      0.683790      0.310552
O       7.46460      5.92188      2.35873         0.542810     -0.447731      0.236699
O       7.56283      5.23393     14.58432        -0.146941      0.464267     -0.034663
O       7.49776      5.76222      6.27153        -0.170252      0.021022      0.524310
O       7.44808      5.95339     10.52822         0.861341     -0.346132      0.130723
O       7.41684      9.06731      2.37704        -0.224753      0.357691     -0.286812
O       7.46431      9.70106     14.72381         0.518183     -0.359715     -0.108764
O       7.47540      9.11064      6.48635        -0.228516      0.262000     -0.293706
O       7.46817      9.02324     10.46432         0.784218     -0.013751      0.339019
O      11.32211      2.18062      2.46860        -0.844701     -0.529955     -0.105101
O      11.29496      1.54680     14.39868        -0.761725     -0.189137      0.563877
O      11.30741     12.80322      2.41923        -0.560206     -0.236017     -0.032707
O      11.24595     13.42670     14.65964        -0.549254     -0.274793     -0.717461
O      11.28065      2.23004      6.32020         0.450134     -0.682069      0.086875
O      11.22101     13.00772      6.46003         0.329731     -0.483025     -0.043524
O      11.31414      2.19520     10.28068        -1.763644     -0.337098      0.807003
O      11.29535     12.92273     10.41811        -1.339274     -0.238598      0.466390
O      11.15515      5.31605      2.21848         1.560064     -0.095200     -0.037305
O      11.23612      5.95485     14.70930         0.576001     -0.130808     -0.156635
O      11.22707      5.33143      6.38060         1.127890      0.676540      0.173756
O      11.19039      5.23651     10.53023         0.500508      1.105370     -0.769504
O      11.17055      9.73811      2.34050        -0.340552     -0.303502      0.319851
O      11.22380      9.09791     14.56530        -0.877548     -0.057181      0.219657
O      11.20893      9.53251      6.39658        -1.458781      0.058514      0.429923
O      11.23067      9.57773     10.36522         0.298413      0.439470      0.256566
O       1.67723      3.68437      2.33234        -0.576942      0.372836      0.562436
O       2.09342      3.80543     14.59324         0.531130     -1.100785     -0.324296
O       2.05257     14.98337      2.22779         0.498315      1.263368      0.116362
O       1.63272      0.00853     14.50290         0.143032      0.205272      0.991905
O      13.42237      3.77525      2.49091        -0.585843      0.419422     -0.655299
O      12.76903      3.69921     14.66725         0.377939      1.389705     -0.254385
O      12.86369     14.97084      2.30007         0.253792     -0.132979      0.529221
O      13.47414     15.00988     14.55014        -0.719336      0.264261     -0.184495
O       1.72550      3.80186      6.44691         0.573396     -0.973905     -0.269317
O       1.89812     14.98159      6.53574         1.042384      0.105862     -0.482081
O      13.36801      3.76262      6.44392        -0.495254      0.008496     -0.185436
O      13.08732     15.00356      6.46743        -0.194710     -0.014785     -0.428226
O       1.61589      3.71397     10.30380         0.009943      1.200675      0.716147
O       2.05735      0.01486     10.38005         0.328342     -1.095303      0.529196
O      13.32601      3.77215     10.40134         0.511290      0.160694      0.247709
O      12.97845     14.97137     10.58961        -0.572628      0.596938      0.134727
O       2.08659      7.45580      2.19406         0.140373      0.345769      0.334071
O       1.70835      7.54823     14.70262        -0.559819     -1.227700      0.331738
O      12.70886      7.45591      2.43203         0.593783     -0.327027     -0.378958
O      13.30856      7.55552     14.51484         0.472936     -1.333425      0.250499
O       2.11684      7.46269      6.37432        -0.430117      1.065199     -0.145430
O      13.02428      7.52314      6.38414        -0.129678     -0.782292     -0.061400
O       2.24273      7.45731     10.45602        -0.649539      0.738628      0.516168
O      12.77077      7.43644     10.49860        -0.198799      1.148178      0.119707
O       1.52757     11.21802      2.20109         0.334239     -0.707692      0.469440
O       2.19556     11.20802     14.59733        -0.551745      0.613700      0.097637
O      13.33986     11.08552      2.12877         0.709136      1.771466      0.031232
O      12.77781     11.27324     14.66636         0.240713     -1.083138     -0.071295
O       1.71082     11.24665      6.43505        -0.184567     -0.602978      0.069226
O      13.24759     11.21056      6.51665         0.020019      0.606583     -0.182996
O       1.66872     11.28770     10.68900        -0.097167     -1.457020     -0.731405
O      13.31747     11.25204     10.48629         0.602409     -1.289624      0.111146
O       5.97339      3.72356      2.39408        -0.192711     -0.680012     -0.709835
O       5.39115      3.75275     14.56379         0.254040     -0.629911      0.525282
O       5.33901     14.93272      2.43384         0.036242      1.202922     -0.355561
O       5.87225     14.96935     14.62321        -0.111470     -0.020168     -0.216323
O       5.85900      3.65478      6.49419        -0.089904      0.461206      0.015023
O       5.22597     14.94927      6.38657         0.600857      0.391955      0.021792
O       5.90560      3.72660     10.45265        -0.390757      0.780001      0.639613
O       5.57589     14.96603     10.57452        -0.537077      0.149433      0.086379
O       5.40611      7.41085      2.36166        -0.535974      1.029660      0.321825
O       5.94186      7.47978     14.72274        -0.312211      0.182909     -0.558814
O       5.38537      7.43658      6.38783         0.105943      0.149287     -0.130429
O       5.29805      7.48357     10.43405        -0.272280     -1.384489      0.726187
O       5.64769     11.19226      2.37222         0.326515      0.304613     -0.270696
O       5.39404     11.20687     14.65065        -0.397793      1.123989      0.148562
O       6.02980     11.18414      6.39944        -0.712844      0.932649      0.586296
O       5.95208     11.21284     10.46224        -0.241110     -0.271760      0.075309
O       9.03693      3.68674      2.30013        -0.015347      1.383923      0.036441
O       9.77459      3.80954     14.51228        -0.299300     -0.830925      0.500951
O       9.70938     14.93846      2.40719        -0.223070      0.752191      0.139292
O       9.02409      0.03339     14.61385         0.813701     -0.246064     -0.756038
O       9.07809      3.73553      6.41592         0.311503      0.642680     -0.557016
O       9.71743      0.06792      6.59729        -0.624094     -0.642099     -1.132630
O       9.10259      3.70169     10.65442         0.209768      0.976561     -0.664673
O       9.64658      0.02795     10.43952        -0.078528     -0.555685      0.512723
O       9.74086      7.53788      2.32296        -0.843798     -0.601498     -0.300870
O       8.95768      7.53422     14.66815         0.737449     -0.113471     -0.075706
O       9.48475      7.50777      6.36327         0.428860     -0.367523      0.467089
O       9.65687      7.49840     10.34706        -0.079300     -0.774258      0.667225
O       9.02675     11.25812      2.56793         0.748326     -0.079409     -0.241735
O       9.56996     11.25105     14.49676         0.444396      0.562160      0.778467
O       9.00727     11.30132      6.36596         0.723984     -0.748076      0.234233
O       9.07301     11.23234     10.56519         0.566561     -0.861765     -0.502081
