  # total energy = -7864.48215102 
CRSYTAL
PRIMVEC
    15.010000000000000    0.0000000000000000    0.0000000000000000
     0.0000000000000000   15.010000000000000    0.0000000000000000
     0.0000000000000000    0.0000000000000000    16.400000000000000
PRESSURE
16.8859 16.9687 8.11668 -0.047834 -0.129999 0.016159
PRIMCOORD
320 1
Pb       3.60859      3.61404      4.09974         0.402436      0.212233     -0.434621
Pb       3.77994      3.71952     16.30325        -0.110652     -0.194042      1.394197
Pb       3.82181     14.92998      4.17663        -0.844003      0.432492     -0.238739
Pb       3.77223      0.05907     16.34755        -0.223864      0.058110      0.503784
Pb      14.97668      3.79022      4.24688         0.428026     -0.433507     -0.830154
Pb      14.93574      3.85498      0.05820         0.104007     -0.893286      0.238549
Pb      14.95772     14.97785      4.25124         0.520938      0.036105     -0.558478
Pb      14.99819      0.03803     16.23963         0.686106      0.117121      1.535341
Pb       3.82424      3.69269      8.15003        -0.073859      0.318691     -0.177058
Pb       3.86334     14.98688      8.34330        -0.183817     -0.383898     -0.506631
Pb       0.08461      3.68483      8.06596        -0.054516      0.498238      0.892764
Pb       0.15916     15.00733      8.29762        -0.078974     -0.461864     -0.650937
Pb       3.98165      3.74592     12.35135        -1.067286     -0.058098      0.510167
Pb       3.75034      0.02302     12.31430         0.315124      0.010499     -0.063089
Pb       0.01326      3.76203     12.27148         0.085370     -0.172552     -0.246836
Pb      14.93559     15.00034     12.24837         0.164922      0.187304      0.120978
Pb       3.58594      7.68308      4.21087         0.179672     -0.799431     -0.777830
Pb       3.77235      7.54149     16.35640        -0.109870     -0.326053      0.603176
Pb      14.85727      7.52766      4.13566         0.157647     -0.182966     -0.310083
Pb      14.94981      7.46166      0.02581        -0.183860      0.320055      0.701233
Pb       3.67619      7.51792      8.33559        -0.088301     -0.331447     -0.486694
Pb      14.99382      7.46391      8.07562         0.077208      0.214057      0.282144
Pb       3.77918      7.33256     12.40736         0.000560      0.266366     -0.543507
Pb       0.08611      7.49327     12.25146        -0.512289      0.095069      0.298686
Pb       3.60514     11.23629      3.97655         0.044415      0.259225     -0.056071
Pb       3.68120     11.29843      0.07691        -0.037641      0.311593      0.640571
Pb      14.81595     11.21072      4.22051         0.344896     -0.014676     -0.937330
Pb      14.96054     11.22961     16.38668         0.117975     -0.193042      0.728826
Pb       3.54086     11.16199      8.25423         0.715099      0.446456      0.271316
Pb      14.93074     11.15053      8.16537         0.099835      0.097804      0.431222
Pb       3.69958     11.13213     12.48876         0.234202      0.509392     -0.655067
Pb      14.98334     11.18468     12.30525        -0.332137     -0.189905     -0.114065
Pb       7.44851      3.80833      4.29400         0.069082     -0.131322     -0.825100
Pb       7.49313      3.76099      0.11894        -0.008525      0.060371      0.720732
Pb       7.46450      0.06921      4.25338         0.179762     -0.827097     -1.061789
Pb       7.59072      0.03898      0.00134        -0.086562     -0.022023      0.520235
Pb       7.61803      3.82233      8.22339        -0.281473     -0.099054     -0.015757
Pb       7.40895     14.81013      8.34507         0.334705      0.425442      0.005179
Pb       7.60028      3.62967     12.39104        -0.510778      0.345221     -0.184356
Pb       7.51132      0.02703     12.28975         0.029235     -0.288491     -0.369554
Pb       7.37241      7.46798      4.19839         0.146936      0.540398     -0.526193
Pb       7.48884      7.42344      0.09697        -0.384779      0.062304      0.506198
Pb       7.50257      7.51234      8.08813         0.131686     -0.657805      0.954970
Pb       7.58999      7.43793     12.34166        -0.409993      0.138596      0.064044
Pb       7.14439     11.24914      4.17774         1.410135     -0.075349     -0.473631
Pb       7.41040     11.28240      0.03443         0.018205     -0.044143      1.543189
Pb       7.36892     11.09533      8.28873         0.657433      0.421871     -0.178777
Pb       7.52134     11.19902     12.51687         0.112205      0.168187     -1.004734
Pb      11.42906      3.68435      4.22618        -1.043137      0.371736     -0.049421
Pb      11.31609      3.84992      0.05840        -0.578142     -0.669337      0.394598
Pb      11.28529      0.01411      4.22702        -0.271480     -0.085897     -0.667131
Pb      11.33349      0.10156     16.33169        -0.677395     -0.504099      0.842366
Pb      11.42881      3.73955      8.25140        -1.004658      0.886414     -0.465040
Pb      11.34488     14.91759      8.22376        -0.732313     -0.580214     -0.535588
Pb      11.33354      3.75771     12.28147        -0.041737      0.035465     -0.112670
Pb      11.31329     14.86844     12.30026        -0.966375      0.008467      0.652823
Pb      11.10940      7.45428      4.14854         0.256871      0.466408      0.483500
Pb      11.23977      7.42618      0.08504        -0.437790      0.486486     -0.356346
Pb      11.22320      7.53341      8.14725        -0.218219     -0.293569      0.343710
Pb      11.23375      7.45673     12.42671         0.038032      0.193320     -0.567004
Pb      11.05684     11.34852      4.22277         0.124897     -0.817933      0.215085
Pb      11.10384     11.34704      0.02348         0.332430     -0.055017      0.056520
Pb      11.13414     11.22496      8.21037         0.076477     -0.288364     -0.175847
Pb      11.26557     11.16931     12.42401        -0.229174      0.092396     -0.383801
Ti       1.79269      1.86146      2.03263         1.099837      0.508124     -0.053409
Ti       1.84274      1.94115     14.31060         0.700256     -0.601863      0.297805
Ti       1.77279     13.22738      2.10425         0.654759     -0.460953     -0.517653
Ti       1.86971     13.14036     14.27960         0.592274      0.517766      1.246316
Ti      13.12548      1.93108      2.19138        -0.034486     -1.632735     -0.391398
Ti      13.14970      1.87267     14.35067        -0.572501      0.996408     -0.186675
Ti      13.09817     13.08474      2.00577        -0.529396      0.579661     -0.046781
Ti      13.16202     13.07403     14.46814        -1.542177      0.191797     -0.512783
Ti       1.93996      1.86062      6.22637        -0.006464     -1.503792     -1.417857
Ti       1.95343     13.08090      6.22718        -0.763691      0.948808     -1.006206
Ti      13.17537      1.82750      6.27193        -0.552699     -0.268977     -1.167885
Ti      13.17449     13.04936      6.21101        -0.688973      0.663758      0.472960
Ti       1.94520      1.88413     10.28480        -0.902876      0.367864      0.563396
Ti       1.81119     13.12075     10.28512         1.461716     -1.038918      0.051037
Ti      13.07899      1.82021     10.17095         1.638022      0.507708      1.845021
Ti      13.10971     13.04839     10.24714         0.056057     -0.771871     -0.520247
Ti       1.81708      5.61564      2.03413         0.379764      0.184417      1.481212
Ti       1.87029      5.62205     14.46395         0.362597     -0.930959     -0.598887
Ti      13.02821      5.62218      2.13214         0.813122      1.056883     -0.478578
Ti      13.15326      5.63011     14.36737        -0.908772     -0.439924     -0.372496
Ti       1.91308      5.56971      6.09794         0.451331      0.954562     -0.210543
Ti      13.18579      5.60026      6.20895        -1.347778      0.596781     -0.119413
Ti       1.83340      5.61258     10.21561         0.298482      0.324577     -0.980687
Ti      13.10267      5.61672     10.23483        -0.402724      0.562563      0.089039
Ti       1.68381      9.35379      2.08947         0.367863     -0.118303     -0.285557
Ti       1.83522      9.34671     14.44354        -0.257081      0.613406      0.148604
Ti      12.91027      9.32338      2.06364         1.830079      0.627382     -0.334911
Ti      13.09235      9.29899     14.36562        -0.658875      0.229600      0.669867
Ti       1.78882      9.39204      6.11854        -0.085618     -1.021370      0.252964
Ti      12.99143      9.36391      6.16297         0.559581     -0.240616      0.120824
Ti       1.90396      9.37105     10.35962        -0.418728     -0.354868     -0.575011
Ti      13.10849      9.28330     10.24836        -0.235156      0.461668     -0.644422
Ti       5.61437      1.87889      2.21138        -0.364922     -0.183795     -0.996273
Ti       5.69753      1.88113     14.46616         0.231308     -0.773181     -0.201215
Ti       5.56993     13.12331      2.11473         0.342699      0.730275      0.124638
Ti       5.60106     13.17853     14.41497         0.163261     -0.616808     -0.827084
Ti       5.73038      1.78916      6.18164        -1.631493      0.790526     -0.356085
Ti       5.63384     13.07637      6.22447        -0.647245      0.232267      0.663905
Ti       5.67889      1.91377     10.25061         0.078705     -0.762063      0.078008
Ti       5.59171     13.01287     10.35038         0.154369      0.504457     -0.244275
Ti       5.51724      5.61448      2.17074         0.555040     -0.408554     -0.469874
Ti       5.68454      5.57983     14.39169         0.628822      0.717881     -0.025930
Ti       5.62345      5.59871      6.20826        -0.955434     -0.916426      0.058442
Ti       5.61232      5.58248     10.25417        -0.073203      0.982478     -0.222405
Ti       5.53112      9.28329      2.04013         0.378044      1.297024      0.204502
Ti       5.59726      9.40679     14.43017         0.391911     -0.507817      0.662581
Ti       5.50171      9.31003      6.26187         1.263836      0.850409     -0.581100
Ti       5.64068      9.30576     10.28445        -0.557929     -0.433218     -0.426327
Ti       9.33559      1.89627      2.13788         0.286092     -0.305884     -0.127692
Ti       9.44149      1.99630     14.28696        -0.116134     -1.867370      1.061926
Ti       9.40561     13.15340      2.21979        -1.855426      0.168593     -0.578688
Ti       9.28069     13.13672     14.39278         2.210243      1.302097     -0.069014
Ti       9.38815      1.87433      6.20757         0.492625     -0.251508      0.148115
Ti       9.32954     13.13482      6.21179         0.098246      0.028738      1.029216
Ti       9.40915      1.84525     10.13554        -0.872449     -0.460534      1.648164
Ti       9.37320     13.02081     10.24672        -0.955315      0.726171     -0.035856
Ti       9.33207      5.63659      2.16784        -0.277628     -1.081791     -0.323445
Ti       9.39077      5.62768     14.43408        -0.072982      0.467736     -0.073427
Ti       9.41127      5.63592      6.17795         0.306303     -0.341625     -0.343131
Ti       9.30841      5.56608     10.36270         1.164437      0.623084     -0.871357
Ti       9.30802      9.43678      2.12896        -1.287487     -0.224989      0.091365
Ti       9.28026      9.38177     14.48066         1.660550     -0.780141     -0.056781
Ti       9.22450      9.36072      6.14603         0.721896      1.135704     -0.359270
Ti       9.32826      9.31581     10.29947         1.330358     -0.401937     -0.973029
O       1.94166      1.95823      0.19665        -0.368184     -0.211344     -0.216660
O       1.87038      1.93925     12.50059        -0.620319      0.007064     -0.297604
O       2.04755     13.16701      0.26798        -0.989380     -0.122066     -0.059711
O       1.82170     13.15892     12.50975        -0.082636     -0.252836     -0.699672
O      13.04287      1.83492      0.37308         0.333856      0.590034     -0.790590
O      13.20464      1.89917     12.53795        -0.233352      0.151680     -0.423008
O      13.07379     13.18598      0.13095         0.249886     -0.157019      0.341156
O      13.07989     13.02428     12.53847         0.247484      0.320805      0.447107
O       1.93477      1.72822      4.35759        -0.708167      0.673481      0.736442
O       1.99388     13.20532      4.34428        -0.666771     -0.526403      0.356273
O      13.27696      1.79060      4.34971        -0.571232      0.582841      0.486329
O      13.18185     12.95165      4.40996        -0.456560      0.230858     -1.099914
O       2.02508      1.98360      8.46148        -0.471051     -0.781304      0.197867
O       1.86474     13.06557      8.45357         0.086196     -0.139150     -0.240860
O      13.22630      1.79942      8.39840        -0.521951      0.090590     -0.065268
O      13.13798     13.10209      8.37368        -0.144196      0.381383      1.633719
O       1.83841      5.44191      0.23626         0.066292      0.514573     -1.056956
O       1.87401      5.64072     12.62194        -0.175489      0.125873     -0.367798
O      12.99774      5.63837      0.19544         0.541601      0.178293      0.808251
O      13.03075      5.60853     12.51770         0.522174     -0.010749     -0.020990
O       1.96413      5.63335      4.24769        -0.389682     -0.334949      0.677251
O      13.13616      5.60381      4.39143         0.103661     -0.113246     -1.054554
O       1.91247      5.72004      8.33870        -0.238978     -0.257906      1.100147
O      13.15713      5.75600      8.40826        -0.198217     -0.624571     -0.105323
O       1.73770      9.32024      0.22285         0.277484      0.112731     -0.505362
O       1.78436      9.37942     12.58108         0.408375     -0.305761      0.186900
O      13.02030      9.12603      0.18635         0.014914      0.511732      0.439663
O      13.12194      9.38494     12.54871         0.181945      0.032497     -0.471858
O       1.83041      9.34671      4.30495        -0.073671      0.101583     -0.539826
O      13.08265      9.45591      4.32590         0.082083      0.124601     -0.037076
O       1.72405      9.41176      8.51071         0.808495     -0.236225     -0.540479
O      13.19820      9.36242      8.35847        -0.265830     -0.406981      0.606824
O       5.63181      1.72847      0.21644         0.171465      0.518713     -0.083250
O       5.90939      1.87562     12.58241        -0.604784      0.255092      0.002773
O       5.50221     13.14270      0.29954         0.149643      0.151632     -0.805130
O       5.69759     13.15383     12.53059         0.117056     -0.566993      0.044490
O       5.68822      1.95458      4.28048        -0.149371     -0.195546      0.987219
O       5.54737     13.10560      4.42026        -0.110463     -0.363311     -0.754512
O       5.51933      1.86335      8.41132         0.270580     -0.381735      0.670538
O       5.50368     13.15971      8.43118         0.632569      0.191724      0.644274
O       5.70143      5.63468      0.26532        -0.014131      0.094682     -0.017570
O       5.53688      5.61101     12.52378         0.689394      0.093138      0.216968
O       5.55731      5.49208      4.39989         0.151876      0.398931     -0.825376
O       5.58955      5.61854      8.43235        -0.032828     -0.092957     -0.005179
O       5.52385      9.35510      0.18450        -0.010540     -0.276227      0.221508
O       5.63513      9.50055     12.62826         0.169179     -0.268278     -1.085984
O       5.65698      9.35771      4.39439        -0.503400     -0.136146      0.426038
O       5.67521      9.33421      8.38529        -0.344436     -0.176007      0.877677
O       9.48662      1.77200      0.28086        -0.415315      0.304836      0.134620
O       9.40659      1.89972     12.50559        -0.122742      0.050071     -0.671510
O       9.50471     13.15474      0.35459        -0.618980     -0.255528     -0.080184
O       9.38237     13.05809     12.59659        -0.417242      0.012744     -1.148571
O       9.41017      1.78010      4.39482        -0.236798      0.356700     -0.210084
O       9.30968     13.24705      4.44606         0.413273     -0.386020     -1.013390
O       9.37264      1.99846      8.38318         0.207588     -0.168105     -0.802818
O       9.41331     13.13729      8.40575        -0.154794     -0.160086      0.324300
O       9.24870      5.55031      0.24182         0.517471      0.135050      0.068029
O       9.43447      5.80483     12.53451        -0.299695     -0.816415      0.550261
O       9.48570      5.63923      4.32804        -0.497758     -0.218956      0.091443
O       9.45744      5.59325      8.51568        -0.407882     -0.148040     -0.802823
O       9.45497      9.56873      0.25478        -0.369308     -0.697890      0.111737
O       9.26006      9.37602     12.62281        -0.122467     -0.319963     -0.629222
O       9.33995      9.30989      4.32810        -0.505185     -0.170725     -0.083282
O       9.27244      9.36012      8.39542         0.278982     -0.048228      0.814948
O       3.72752      1.93146      2.24733         0.168295      0.902954      0.397539
O       3.79942      1.56430     14.41464        -0.194356      0.229372      0.373080
O       3.67216     12.87998      2.32807         0.021493      0.179717      0.273896
O       3.77567     13.30967     14.47992        -0.958572      1.003924      0.139411
O       0.00170      1.67422      2.40056        -1.087848      0.118235     -0.206451
O      15.00124      2.15029     14.70021         0.150717      0.480044     -0.047723
O      14.88293     13.35724      2.31886         1.574584     -0.333598      0.103572
O       0.03795     12.86878     14.67731        -0.533396     -0.008298     -0.329951
O       3.73830      2.04998      6.33107         1.163183      0.056236      0.349661
O       3.74609     12.81360      6.48736         0.117444      0.203627     -0.066007
O      14.99684      1.80061      6.54774         1.318445     -0.211074     -0.134661
O      15.00536     13.23200      6.38524         0.841059     -0.075510      0.324328
O       3.75872      2.10795     10.73526         0.602931     -0.121715     -0.987158
O       3.74668     12.93003     10.48587        -0.068408     -0.192002      0.457277
O       0.02427      1.57200     10.52861        -0.409340      0.505461     -0.613107
O       0.01957     13.46109     10.38352        -1.781056     -0.728579      0.463934
O       3.73976      5.23503      2.19181        -0.145311      0.771308      0.091397
O       3.85770      5.85920     14.61065        -1.499859     -0.014573      0.340217
O      14.95543      5.98935      2.21868         0.132094     -0.961097      0.043641
O      14.98990      5.26722     14.63578         0.661306      0.448534     -0.177363
O       3.75853      5.34159      6.41601         0.012102      0.139390     -0.028079
O       0.02166      5.75038      6.32134         0.829490     -0.416982      0.300593
O       3.65234      5.26365     10.55373         1.308221      0.312088     -0.270058
O      14.93380      6.07354     10.42941         1.129697     -0.412873      0.263028
O       3.67113      9.45463      2.37126        -0.078963      0.457653     -0.227872
O       3.72293      9.10960     14.51318         0.058047     -0.226109      0.323162
O      14.85138      9.05161      2.26904         0.594498      0.105480      0.087417
O      14.96296      9.67082     14.57060         0.438447     -0.173190      0.129894
O       3.71370      9.51062      6.45306        -0.615954      0.144964      0.092106
O      14.98999      9.24321      6.24101        -0.797892     -0.134094      0.587652
O       3.77903      9.67664     10.49161         0.041768     -0.332073      0.237966
O       0.01841      9.14941     10.50801        -0.784093     -0.451086      0.504457
O       7.45521      1.56022      2.34049         1.411328      0.256383     -0.354279
O       7.61978      2.34275     14.67932        -0.520079     -1.094753     -0.376048
O       7.40627     13.21906      2.41209         0.730340      0.396110     -0.254710
O       7.52540     12.87242     14.81195        -1.420778     -0.191784     -0.535414
O       7.50666      1.51141      6.38354         1.231852      0.375373      0.245679
O       7.47731     13.51973      6.40347         0.390407     -0.690487      0.221963
O       7.51425      1.70240     10.40444         0.053601     -0.479830      0.064965
O       7.46985     13.38896     10.36339         0.329449     -0.320130      0.407281
O       7.51657      5.94066      2.40468        -0.889252     -0.511384      0.038541
O       7.53351      5.19026     14.56859         0.018341      0.482549     -0.129946
O       7.45578      5.73167      6.32610         1.440584      0.237480      0.452264
O       7.50866      6.00825     10.44347        -0.891172     -0.417832      0.288841
O       7.45127      9.08681      2.31635        -0.143753     -0.180233     -0.179650
O       7.50037      9.67380     14.76368        -1.379791      0.183421     -0.480724
O       7.44576      9.14199      6.48287        -0.556583      0.242485     -0.487165
O       7.49006      9.02587     10.49637        -0.542322      0.087896      0.249475
O      11.22895      2.17272      2.42954         0.546340     -0.605545      0.072920
O      11.29024      1.50569     14.46204        -0.003842      0.285069      0.255794
O      11.20667     12.84939      2.51579         0.781034      0.043015     -0.511099
O      11.18196     13.38436     14.60295         1.198116      0.216704     -0.142498
O      11.32689      2.22039      6.35382        -0.520740     -0.932403      0.382159
O      11.26316     12.88958      6.45675        -0.448631      0.533827     -0.186963
O      11.24212      2.28100     10.28860         1.094294     -0.763605      0.585658
O      11.20237     12.88439     10.43419         1.453719     -0.067002      0.309544
O      11.25670      5.24682      2.28868        -0.937116      0.578593      0.085685
O      11.27590      5.98344     14.61655        -0.778072     -0.194675     -0.089619
O      11.24999      5.53387      6.38459         0.297621     -0.356153      0.490963
O      11.23031      5.26634     10.46330         0.634725      0.193047      0.126372
O      11.15075      9.61124      2.41305         0.379662      0.077051     -0.085691
O      11.21226      9.00128     14.45046         0.062802      0.246692      0.692082
O      11.16030      9.42715      6.27728         0.829396      0.564952      0.900998
O      11.23942      9.65650     10.37555        -0.329663      0.078022      0.458696
O       1.69601      3.73066      2.40338        -0.703076      0.253863      0.144626
O       2.21190      3.73799     14.60077        -0.260397      0.488051     -0.377484
O       2.02674      0.03619      2.28105        -0.004887     -1.234134      0.057728
O       1.58364      0.04393     14.52771         0.456366     -0.772545     -0.025771
O      13.30482      3.84435      2.43548         0.994411     -1.901538      0.084290
O      12.81011      3.78387     14.64322         0.339955     -0.950102     -0.202032
O      12.88820     14.92515      2.24990        -0.490938      1.177527      0.700212
O      13.53777      0.06044     14.56781        -1.208467     -1.333475     -0.543947
O       1.76966      3.69351      6.49102        -0.371518      1.170848     -0.568486
O       2.03799     14.96940      6.44505        -0.195913      0.055717      0.722563
O      13.31757      3.75384      6.39413         0.142834     -0.240867      0.321497
O      13.10356     14.99110      6.37807        -0.882819     -0.121315      0.261588
O       1.52428      3.81223     10.37155        -0.224872     -1.058304      0.480916
O       2.06973     14.96847     10.44142         0.531293      1.199852      0.115648
O      13.46840      3.78692     10.46542        -0.403867     -1.118960     -0.262951
O      12.89283     14.96299     10.61801         0.124919      0.740581     -0.855006
O       2.07287      7.48432      2.28402         0.211296     -0.613635     -0.031105
O       1.64684      7.43182     14.70344         0.046334      1.106271     -0.174438
O      12.82826      7.46789      2.46478        -0.402104      0.154598     -0.307463
O      13.41073      7.44794     14.53237         0.466451      0.882369     -0.036009
O       2.01991      7.45638      6.25295         0.176198      0.495419      0.633809
O      13.08211      7.44409      6.38033        -0.338313      1.811043      0.123846
O       2.28805      7.49522     10.43870        -0.701541     -0.109019      0.670956
O      12.69289      7.53483     10.48001         0.652181     -1.102234      0.113404
O       1.58154     11.18692      2.26127         0.024891      1.033397      0.356314
O       2.22546     11.26898     14.65140        -1.004498     -0.649488     -0.595316
O      13.33895     11.19763      2.10243        -0.156604     -0.290888      0.327376
O      12.77999     11.26080     14.68054         0.618266     -0.665624     -0.321829
O       1.63871     11.20309      6.37238         0.311835      0.646798      0.316686
O      13.23753     11.22727      6.55187         0.087187     -1.206071     -0.581509
O       1.66932     11.19067     10.63246        -0.158966      1.644716     -0.120686
O      13.28750     11.18757     10.46804         0.691524      1.384164      0.179257
O       5.87552      3.75256      2.34612         0.167879      0.057562     -0.140734
O       5.37217      3.67515     14.57358         0.055732      1.334547      0.097532
O       5.42327      0.00990      2.48085        -0.046178     -1.260963     -0.497404
O       5.89447     14.97525     14.56167         0.537416      0.764067      0.301163
O       5.92143      3.60096      6.50109        -0.384315      1.710323     -0.079109
O       5.41352     14.97830      6.34496        -0.799187     -0.052444      0.547902
O       6.05312      3.82448     10.46973        -0.939138     -1.548056      0.433748
O       5.43044      0.04850     10.60051        -0.093067     -0.106236     -0.649901
O       5.35196      7.50836      2.37532        -0.089512     -1.469064      0.194860
O       5.97059      7.49564     14.54998        -0.342112     -0.050794      0.174320
O       5.49661      7.45462      6.45516        -0.450539     -0.002305     -0.165530
O       5.27805      7.43660     10.44904        -0.122537      0.842272      0.482241
O       5.72226     11.18224      2.32156        -0.267017      0.169892      0.080323
O       5.26916     11.32111     14.66587         0.942666     -1.417979     -0.069381
O       5.93220     11.27166      6.45345        -0.498814     -1.233284     -0.113595
O       5.88715     11.15632     10.32598         0.214471      1.180706      0.939592
O       9.06994      3.73087      2.30642        -0.108074     -0.322948      0.275046
O       9.83691      3.79625     14.54872        -0.170171     -0.046329     -0.130478
O       9.59625     14.96287      2.47143        -0.025133      0.705488     -0.301353
O       8.96802      0.03104     14.46855         0.529662      0.115772      0.300584
O       9.17051      3.77856      6.35176        -0.123669     -0.562766      0.251644
O       9.72104      0.04307      6.49488         0.048756     -0.270279      0.044671
O       9.04882      3.71357     10.56776         0.479361      0.170948     -0.265675
O       9.60685     14.95766     10.47155         0.160096      1.024489     -0.016126
O       9.65604      7.41513      2.32554         0.106481      1.766579     -0.408462
O       8.95506      7.46414     14.74196         0.857910      0.233489     -0.618799
O       9.54667      7.52270      6.36841        -0.711344     -0.985729      0.474258
O       9.66995      7.48368     10.48242         0.009732      0.275283      0.289326
O       9.01795     11.21629      2.48020         0.793382      0.474573     -0.150721
O       9.63688     11.22135     14.51019        -0.005007      0.472988      0.557334
O       9.07770     11.25269      6.41309         0.497997      0.290719     -0.091669
O       9.09550     11.19402     10.53151        -0.265375      0.393122      0.253520
