  # total energy = -7881.81299843 
CRSYTAL
PRIMVEC
    15.6000000000000000    0.0000000000000000    0.0000000000000000
     0.0000000000000000   15.6000000000000000    0.0000000000000000
     0.0000000000000000    0.0000000000000000    17.640000000000000
PRESSURE
-5.94204 -6.1017 -2.30748 -0.011072 0.028279 0.01599
PRIMCOORD
320 1
Pb       3.85153      3.84152      4.39196         0.093901      0.247235     -0.972313
Pb       3.87712      3.88634     17.61306         0.423009      0.317438     -0.782311
Pb       3.87852     15.57608      4.36804         0.193413      0.117564     -0.576190
Pb       3.86712     15.57073     17.59831        -0.021053     -0.027284     -0.768181
Pb      15.59919      3.87300      4.39937        -0.205040      0.438925     -1.057629
Pb      15.58757      3.89367     17.62577        -0.446602      0.090781     -0.860799
Pb      15.57051     15.57174      4.37108        -0.213961     -0.181331     -0.904990
Pb      15.55132     15.59770     17.59971         0.142753      0.101467     -0.932832
Pb       3.86740      3.89721      8.79864         0.199512     -0.214151     -0.502879
Pb       3.86504     15.59851      8.77764         0.043310      0.017430     -0.518527
Pb      15.57740      3.88780      8.76669         0.025825     -0.053546     -0.186405
Pb      15.59332     15.58991      8.78474         0.026707     -0.213386     -0.169067
Pb       3.88320      3.82144     13.21653         0.325812      0.030626     -0.754252
Pb       3.86276     15.56981     13.20202        -0.168703      0.105130     -0.851971
Pb      15.57916      3.84601     13.19728        -0.129822      0.472498     -0.685643
Pb      15.58101      0.01970     13.18847         0.107191     -0.230680     -0.419061
Pb       3.88171      7.79705      4.39868        -0.075120      0.096027     -1.033025
Pb       3.90608      7.79272     17.61048        -0.152245     -0.290351     -0.853572
Pb      15.58609      7.83834      4.39352         0.222875     -0.106172     -0.469264
Pb      15.59507      7.80063     17.60077        -0.167204     -0.031900     -0.846061
Pb       3.89111      7.81345      8.81057        -0.526667     -0.087851     -0.520665
Pb      15.57937      7.78552      8.80642        -0.004360      0.215961     -0.387729
Pb       3.88993      7.78798     13.18383        -0.654752     -0.095199     -0.418879
Pb      15.59789      7.81406     13.20298         0.023249     -0.510418     -0.897662
Pb       3.88020     11.67066      4.38824         0.555622     -0.335732     -0.923203
Pb       3.89231     11.66429     17.60806         0.353356      0.114684     -0.821026
Pb      15.55910     11.63290      4.35076        -0.217624      0.063892     -0.436506
Pb      15.57625     11.66280     17.58740        -0.417580      0.126234     -0.620578
Pb       3.86547     11.64962      8.77974         0.229916      0.200363     -0.517331
Pb      15.56951     11.69422      8.81177        -0.019026      0.131812     -0.935336
Pb       3.87730     11.69618     13.19969        -0.175626     -0.127754     -0.969742
Pb      15.56156     11.66088     13.20184         0.124212      0.208430     -0.760671
Pb       7.80261      3.83151      4.40835         0.076807     -0.048230     -0.451925
Pb       7.78584      3.86686     17.60486        -0.125538     -0.089597     -0.924129
Pb       7.76547     15.55783      4.36956        -0.072585     -0.120987     -0.771894
Pb       7.77756     15.57449     17.62736         0.021274      0.244049     -0.725837
Pb       7.76825      3.88430      8.78330        -0.250810      0.153240     -0.392979
Pb       7.79262     15.58330      8.76499        -0.291008     -0.152365     -0.367688
Pb       7.84388      3.89475     13.17936        -0.138244      0.281127     -0.894389
Pb       7.78323     15.59975     13.22240         0.079031     -0.225726     -1.188106
Pb       7.81991      7.78252      4.38077        -0.138847      0.019850     -0.367535
Pb       7.78498      7.81737     17.62204         0.160678     -0.179822     -0.675502
Pb       7.77078      7.79401      8.78449         0.427654     -0.249064     -0.557076
Pb       7.78157      7.82256     13.16649        -0.163438     -0.542840     -0.768031
Pb       7.80181     11.68791      4.39188        -0.273910      0.022005     -0.655182
Pb       7.78368     11.68621     17.63472        -0.172549     -0.119967     -0.712055
Pb       7.79831     11.68372      8.83506        -0.159266      0.218856     -0.689059
Pb       7.78525     11.69515     13.20602        -0.137119      0.240898     -0.946278
Pb      11.67264      3.88245      4.40433        -0.039317     -0.207781     -0.878203
Pb      11.73187      3.86780     17.61266         0.009144      0.104125     -0.670169
Pb      11.64058     15.54351      4.40041         0.037400      0.352150     -1.113359
Pb      11.63902     15.55838     17.61834         0.021488      0.117372     -0.711300
Pb      11.64514      3.88519      8.79084         0.102447     -0.016744     -0.684820
Pb      11.71026      0.00232      8.77206         0.018194      0.164354     -0.455613
Pb      11.70795      3.88541     13.20940         0.074537      0.214591     -0.663793
Pb      11.68416     15.58273     13.19633         0.016114     -0.350641     -0.611153
Pb      11.70487      7.77142      4.35195        -0.281817     -0.450599     -0.340943
Pb      11.70104      7.76775     17.59304        -0.126351     -0.000728     -0.747031
Pb      11.65636      7.78387      8.76512         0.007115     -0.088298     -0.241171
Pb      11.69674      7.77099     13.21376         0.403600     -0.224417     -0.889567
Pb      11.68899     11.67406      4.34335        -0.076993      0.157318     -0.460077
Pb      11.71793     11.64768     17.56867        -0.028167     -0.012275     -0.410177
Pb      11.69349     11.65444      8.74113        -0.087123      0.193125     -0.295297
Pb      11.66539     11.65995     13.15568         0.057237      0.195250     -0.546462
Ti       1.94156      1.94678      2.32561        -0.093353     -0.205956      0.479039
Ti       1.90815      1.98082     15.57438        -0.360539     -0.534965      0.135008
Ti       1.92587     13.65636      2.31772         0.045530      0.028346      0.617650
Ti       1.93124     13.64203     15.55713        -0.334287      0.218817      0.742359
Ti      13.68554      1.92029      2.29326        -1.410347      0.278755      1.247439
Ti      13.58198      1.89929     15.59567         0.489946      0.246864      1.060541
Ti      13.63461     13.58167      2.33674        -0.068756      0.405001     -0.701889
Ti      13.60964     13.60069     15.59157         0.400144      0.694689     -1.157135
Ti       1.86251      1.90488      6.71589         0.714347      0.392096      2.064786
Ti       1.98936     13.63106      6.75786        -0.700345      0.300414      1.004635
Ti      13.66561      1.90597      6.68546        -1.099035      0.574261      1.715552
Ti      13.61383     13.65198      6.69911         0.463172     -0.438540      0.053449
Ti       1.95218      1.92077     11.12430        -0.226724     -0.171484      0.546718
Ti       1.91432     13.65287     11.11557        -0.121088     -0.159799     -0.319115
Ti      13.61234      1.86837     11.14845         0.229023      0.983534      1.615311
Ti      13.62007     13.63565     11.13367         0.087246     -0.083485      1.264881
Ti       1.89530      5.88117      2.24770         0.191984      0.058513      0.839435
Ti       1.90822      5.80829     15.59038        -0.041141      1.003814     -0.747057
Ti      13.58333      5.84077      2.27370         0.195249     -0.992467      0.931390
Ti      13.58972      5.84911     15.55638         0.186145     -0.520575     -0.534839
Ti       1.92974      5.87399      6.71809        -0.498819      0.184017      1.008574
Ti      13.63361      5.82999      6.77808        -0.349318      0.059429      0.607080
Ti       1.99138      5.76057     11.12222        -1.250175      0.900378      1.758673
Ti      13.63047      5.82032     11.15301         0.639078      0.323954      1.376954
Ti       1.91514      9.78309      2.31444         0.242056     -0.982425      1.641803
Ti       1.89956      9.74770     15.56087         0.169240     -0.592773      0.429479
Ti      13.56812      9.67992      2.40158         0.664489      0.442517     -1.121966
Ti      13.60502      9.73246     15.54853         0.442901     -0.319661      0.068795
Ti       1.97762      9.76181      6.72052        -0.966481     -0.605416      1.775972
Ti      13.58632      9.70406      6.74526         1.072553      0.368805     -0.082053
Ti       1.91990      9.72617     11.10537        -0.026338     -0.713724      0.539882
Ti      13.61985      9.75936     11.14604        -0.023151     -0.904403      0.622186
Ti       5.82440      1.96463      2.32934         0.147439     -0.835652      1.592392
Ti       5.78961      1.93796     15.49354         0.589818      0.185419      1.369781
Ti       5.79740     13.63503      2.32467         0.557490     -0.496787      0.745714
Ti       5.86918     13.66169     15.53129        -0.325585     -0.153393      3.689280
Ti       5.80071      1.91271      6.72905         0.439840     -0.182897      1.536661
Ti       5.81884     13.62245      6.73485         0.563882     -0.091080      1.010878
Ti       5.85715      1.88686     11.11117         0.116632      0.972446      1.304430
Ti       5.76189     13.65228     11.10892         0.925164     -0.275335      1.658481
Ti       5.86799      5.81811      2.32212        -1.019201     -0.171003     -0.603884
Ti       5.84086      5.86274     15.58776        -0.632027     -0.625531      0.322130
Ti       5.74233      5.85907      6.72170         0.985814     -0.614967      1.648911
Ti       5.78230      5.91093     11.14523         1.281821     -1.799410     -0.457144
Ti       5.86512      9.68275      2.29587        -0.500530      0.679799      1.526276
Ti       5.78595      9.69604     15.53586         0.463463      0.646507      1.508934
Ti       5.86085      9.69076      6.76578         0.026442      1.413711     -0.574799
Ti       5.82633      9.70289     11.14742        -0.312754      0.795626      1.689832
Ti       9.71856      1.94242      2.34469         0.672745     -0.087457      1.001947
Ti       9.71448      1.93662     15.51012        -0.290179     -0.031340      2.306921
Ti       9.75414     13.61953      2.27801        -0.294915      0.216401      1.418601
Ti       9.71601     13.64521     15.56130         0.431632     -0.223220      0.432144
Ti       9.71564      1.89197      6.75850         0.228687      1.091719      0.571491
Ti       9.71150     13.63991      6.75125        -0.030193     -0.356430      0.152862
Ti       9.74879      1.91572     11.14313        -0.307134     -0.119776      1.262134
Ti       9.72499     13.61143     11.11295        -0.383659      0.013374      0.458148
Ti       9.68241      5.86146      2.30663         0.730761     -0.928268      0.783993
Ti       9.65286      5.83142     15.55392         1.066321     -0.571349     -1.283340
Ti       9.68377      5.86030      6.72822         0.185694     -0.095317      0.837297
Ti       9.73684      5.83629     11.11871        -0.711506     -0.160220      1.301825
Ti       9.73098      9.74034      2.33334        -0.786290     -0.182296      0.752403
Ti       9.66967      9.71265     15.53792         0.701417      0.479462      2.796312
Ti       9.75301      9.77524      6.71503        -0.631943     -0.538820      1.479213
Ti       9.70180      9.69848     11.17473         0.441391      0.309425      0.077499
O       1.90372      1.85592      0.59670         0.367844      0.427472     -0.650182
O       1.81095      2.00637     13.81989         0.405874     -0.079929     -0.580300
O       1.87623     13.63960      0.59749         0.092199     -0.012814     -0.888835
O       2.00459     13.63586     13.83499         0.089244     -0.102927     -1.001335
O      13.64461      2.02890      0.56506        -0.141234     -0.130624     -0.988373
O      13.55420      1.89277     13.87576         0.264214     -0.076365     -1.607455
O      13.61784     13.48545      0.54452         0.210470      0.252178      0.433270
O      13.65579     13.66632     13.80100        -0.191640     -0.178664      0.137133
O       1.92961      1.96623      4.99657        -0.354744     -0.317150     -1.119156
O       1.91903     13.63803      5.02579         0.027906      0.023397     -1.012083
O      13.62829      1.92863      4.95955         0.538922     -0.081238     -1.011903
O      13.60930     13.64682      4.91335         0.195703      0.197905     -0.007521
O       1.88646      1.98115      9.39749         0.431871     -0.379848     -1.117945
O       1.91231     13.70454      9.33710        -0.034429     -0.251355     -0.075575
O      13.56417      1.95226      9.47570        -0.035782     -0.116643     -2.257860
O      13.71582     13.68833      9.41848        -0.351272     -0.253247     -1.113856
O       1.88288      5.83498      0.48299         0.251355      0.109726     -0.069695
O       1.92017      5.80221     13.83061         0.109919     -0.238590     -0.292188
O      13.66272      5.77387      0.54388        -0.331658      0.096893     -0.989877
O      13.59417      5.88171     13.76571        -0.320022     -0.022643      0.323926
O       1.93593      5.99974      4.98239        -0.000425     -0.529353     -0.452425
O      13.65726      5.87413      5.04196         0.056391     -0.228859     -0.522491
O       1.91863      5.80939      9.41540         0.179633      0.154486     -1.397364
O      13.64820      5.91766      9.43254        -0.022852     -0.231779     -1.124471
O       1.92411      9.67995      0.62014        -0.058068      0.232879     -1.901528
O       1.91171      9.75805     13.85320         0.078213      0.062552     -1.643473
O      13.68330      9.80002      0.62600        -0.348543     -0.305378      0.275265
O      13.61051      9.71136     13.78043        -0.030823      0.168805      0.136287
O       1.85547      9.61212      5.00406         0.276166      0.480198     -1.189751
O      13.58128      9.74952      4.94781        -0.071855     -0.190173      0.013977
O       1.97408      9.57520      9.35050         0.015138      0.466183     -0.271024
O      13.62971      9.61252      9.40437        -0.012924      0.603087     -0.569262
O       5.83402      1.93402      0.62319        -0.102731      0.167994     -1.538059
O       5.79463      1.95721     13.77466        -0.138011     -0.020854     -1.161585
O       5.92643     13.56144      0.59591        -0.230151      0.187218     -0.804774
O       5.90070     13.66649     13.88438        -0.357719     -0.037887     -3.345943
O       5.86849      1.82691      5.01032        -0.287711      0.191671     -1.033627
O       5.88526     13.67558      4.98704        -0.211139     -0.193639     -0.584441
O       5.86353      2.01590      9.39133        -0.064239     -0.488207     -0.746937
O       5.86587     13.63312      9.41446        -0.130440     -0.015976     -1.660335
O       5.82137      5.76782      0.50645         0.214044      0.042190      0.988742
O       5.80226      5.84496     13.84253         0.175777      0.097298     -0.490889
O       5.76904      5.76343      5.02160        -0.207789      0.021504     -0.985415
O       5.90576      5.80976      9.36774        -0.569829      0.619231     -0.128511
O       5.85049      9.81420      0.56135         0.083246     -0.372899     -0.584949
O       5.90991      9.66949     13.81748        -0.235098      0.040996     -0.839672
O       5.86922      9.81001      5.02212        -0.311939     -0.059492     -0.516580
O       5.91984      9.77707      9.44656        -0.493526     -0.299841     -1.858132
O       9.70555      1.82222      0.62721        -0.035591      0.472452     -1.298542
O       9.74167      1.95912     13.82025         0.132130     -0.337076     -1.831556
O       9.76797     13.63633      0.55513        -0.186921      0.075453     -1.020207
O       9.76878     13.58561     13.82599        -0.197219      0.172501     -0.638805
O       9.81577      2.07884      5.03956        -0.394864     -0.427822     -0.866481
O       9.80265     13.64943      4.98461        -0.138760     -0.106121     -0.048838
O       9.72434      1.88460      9.43947         0.048481     -0.038148     -1.919758
O       9.73753     13.50918      9.35365        -0.034554      0.290340     -0.208866
O       9.69734      5.73545      0.56023        -0.188886      0.286602     -0.243348
O       9.66131      5.73181     13.70935        -0.067803      0.614807      1.118740
O       9.70619      5.86606      4.98548         0.158857     -0.141641     -0.204203
O       9.62784      5.88133      9.39683         0.270420     -0.004006     -0.816322
O       9.76545      9.70232      0.61308        -0.272726     -0.047406     -1.085715
O       9.70536      9.80125     13.85345         0.002801     -0.395850     -2.049375
O       9.76886      9.76038      4.99576         0.074100      0.123140     -0.839702
O       9.72724      9.63841      9.45045        -0.140796      0.384516     -1.136364
O       3.90972      1.88378      2.80316        -0.238142      0.249723      0.096028
O       3.85441      2.02932     15.92860        -0.173482     -0.202330      0.317924
O       3.85312     13.66746      2.64603         0.401470     -0.236289      0.527459
O       3.89913     13.71752     16.04111        -0.271520     -0.651664      0.059154
O      15.53565      1.83638      2.61286         1.216399      0.449750      0.934792
O       0.05534      1.84603     16.06322        -1.051578      0.663365      0.140274
O      15.57394     13.52483      2.70290         0.464504      0.517797      0.563067
O      15.57661     13.64458     15.87190         0.223423     -0.359044      0.721448
O       3.88388      1.80103      7.15862        -0.558306      0.651175     -0.099780
O       3.90015     13.71853      7.12254        -0.520995     -0.164762      0.148334
O      15.53915      1.92861      7.22727         0.449115      0.088265     -0.526092
O      15.49036     13.63625      7.17117         0.698600     -0.004539     -0.025661
O       3.89661      1.91670     11.58355         0.120689     -0.036087      0.280352
O       3.82784     13.61899     11.49483         0.415488      0.011826      0.648694
O       0.07283      1.86819     11.45100        -1.396684      0.167175      0.858861
O       0.03151     13.60911     11.55251        -0.744574     -0.067984      0.362591
O       3.93036      5.75534      2.67770        -0.633658      0.342690      0.333596
O       3.89020      5.90423     15.94494        -0.260628     -0.575246      0.555511
O       0.04657      5.73245      2.56531        -0.406226      0.388907      0.736607
O      15.44755      5.76868     15.87944         1.379955      0.456203      0.710319
O       3.83033      5.83171      7.22029         0.487327     -0.100763     -0.155616
O      15.58052      5.87992      7.14233        -0.150346     -0.225679      0.179708
O       3.87442      5.92771     11.49274         0.014436     -0.542567      0.351533
O      15.56642      5.88312     11.55595         0.355709     -0.717817      0.209506
O       3.91382      9.66327      2.73460        -0.235496      0.209718      0.288840
O       3.91747      9.77104     15.93349        -0.314117     -0.394423      0.447180
O      15.49506      9.65378      2.72461         0.732222      0.543877      0.499279
O      15.56831      9.70525     15.93326        -0.145594      0.192257      0.586562
O       3.86142      9.82264      7.10605         0.194412     -0.432024      0.446854
O       0.00818      9.72231      7.13826        -0.251564      0.275504      0.210243
O       3.87238      9.64996     11.55497         0.199208      0.726921      0.184554
O      15.58100      9.72927     11.52334         0.158094      0.438625      0.256548
O       7.77540      1.92240      2.75350         0.175242      0.315634      0.377203
O       7.78175      1.89089     15.87564        -0.293136      0.086206      0.452212
O       7.86937     13.60308      2.74629        -0.386786     -0.065580      0.133516
O       7.79085     13.75651     15.93533        -0.428278     -0.544851      0.385192
O       7.76626      1.98293      7.05847         0.344014     -0.403129      0.484802
O       7.79754     13.56411      7.16067        -0.300649      0.341270      0.071140
O       7.78827      1.87942     11.56673        -0.294438      0.021249      0.319724
O       7.75314     13.69022     11.58565         0.554712     -0.520604      0.239887
O       7.70671      5.88640      2.74230         0.791002     -0.708203      0.119001
O       7.80095      5.91152     15.97153        -0.511707     -0.137626      0.304015
O       7.79809      5.90899      7.03699        -0.710391     -0.190719      0.470053
O       7.72773      5.92637     11.44760         0.708547     -0.062752      0.896097
O       7.76565      9.69005      2.80890         0.162211      0.185694     -0.142544
O       7.82053      9.72745     15.99114        -0.394126     -0.496688      0.161016
O       7.74026      9.72900      7.08149         0.577909      0.242023      0.528966
O       7.69980      9.77636     11.54278         0.990576     -0.252288      0.556591
O      11.66229      1.93888      2.74406         0.125736      0.037597      0.238028
O      11.70156      1.87590     15.97974        -0.867131      0.301245      0.360338
O      11.74631     13.63122      2.62506        -0.747399     -0.105115      0.715462
O      11.68731     13.69637     15.86963        -0.374970     -0.307589      0.752423
O      11.68607      1.96125      7.05375        -0.109520     -0.584398      0.737155
O      11.68742     13.60191      7.05460        -0.035480      0.296607      0.695563
O      11.66191      1.95796     11.49782         0.104787     -0.641087      0.650353
O      11.65951     13.59717     11.48561         0.217501      0.425459      0.360203
O      11.68651      5.82774      2.65139        -0.141808      0.421550      0.260431
O      11.61133      5.80944     15.90172         0.374940     -0.071626      0.611478
O      11.69310      5.85306      7.15095        -0.145048      0.140453      0.235486
O      11.65657      5.81168     11.49518        -0.011402      0.395569      0.338910
O      11.55115      9.67275      2.70214         1.894622     -0.150870      0.630533
O      11.76627      9.79123     15.99287        -1.077060     -0.487476      0.174268
O      11.69644      9.63354      7.19242        -0.540589      1.136770     -0.053679
O      11.69329      9.74326     11.53515        -0.126647     -0.327755      0.462472
O       1.94722      3.85961      2.75189        -0.005362      0.068468      0.202684
O       1.82676      3.93787     15.87951         0.433001     -0.784033      0.883326
O       2.05534      0.02802      2.68232        -0.926811     -0.788975      0.690153
O       1.84583      0.00094     15.89026         0.828745     -0.344389      0.544867
O      13.60170      3.92151      2.74292         0.422212     -0.408288      0.370714
O      13.64450      3.86385     15.91669        -0.346474     -0.211549      0.545544
O      13.61331      0.00662      2.66686         0.252574     -0.840313      0.379303
O      13.62631     15.58239     15.91406         0.159667     -0.271439      0.868442
O       1.85510      3.85326      7.08782         0.309537      0.224811      0.084648
O       1.86526     15.58397      7.18392         0.002504      0.006212     -0.194720
O      13.57622      3.84700      7.28365         0.501510      0.526827     -0.525869
O      13.65435      0.04842      7.22329        -0.413220     -0.745400     -0.363262
O       1.90845      3.82456     11.38074         0.414617      0.992600      1.045211
O       1.92430     15.54164     11.55802         0.347583      0.194844      0.409497
O      13.56310      3.84628     11.61788         0.560122      0.261528      0.071487
O      13.65681     15.58318     11.47403        -0.285144     -0.360689      0.768470
O       1.88295      7.84534      2.73679         0.263806     -1.118295      0.036044
O       1.93824      7.77599     15.87357        -0.242320      0.095938      0.967465
O      13.60747      7.72999      2.72706        -0.021476      0.459584      0.214909
O      13.64078      7.75787     15.98397        -0.390418      0.568943      0.337265
O       1.94468      7.78348      7.15239         0.344998      0.028311      0.239559
O      13.57693      7.86412      7.15621         0.433778     -1.137163      0.034304
O       1.97690      7.76386     11.58465        -0.351184      0.285946      0.160059
O      13.76707      7.81739     11.58657        -1.149645     -0.211470      0.273080
O       2.04425     11.65484      2.66339        -0.531339      0.391894      0.595970
O       1.93617     11.63015     15.81553         0.069272      1.096850      1.110732
O      13.64152     11.61972      2.72385        -0.401511      0.302441      0.687973
O      13.61788     11.68734     15.95849         0.270806     -0.255060      0.235984
O       1.97335     11.72208      7.16017        -0.219924     -0.093799      0.112570
O      13.63981     11.70294      7.05263        -0.297481     -0.247859      0.602130
O       1.90594     11.64528     11.44863         0.351016      0.089281      0.445526
O      13.55269     11.72359     11.48898         0.579999     -0.458461      0.341350
O       5.81819      3.80458      2.78844         0.193060      0.964427      0.129766
O       5.81624      3.87132     15.96341         0.227520      0.273670      0.329297
O       5.89857     15.51516      2.70993        -0.180443      0.431964      0.371052
O       5.74054      0.03278     15.92576         0.206568     -0.165139      0.324048
O       5.85943      3.85325      7.22402        -0.564586      0.549971     -0.417360
O       5.85119     15.55662      7.22202         0.276273      0.187862      0.068243
O       5.86214      3.93677     11.43970        -0.400123     -0.403401      0.842014
O       5.82670     15.55859     11.50872        -0.277775      0.509561      0.463484
O       5.84491      7.75587      2.77823        -0.123064     -0.047184     -0.230424
O       5.81864      7.74900     16.07041         0.218455      0.852939      0.004906
O       5.79967      7.82961      7.03770        -0.399949     -1.048539      0.585910
O       5.80567      7.79138     11.61220         0.162295      0.455352      0.002689
O       5.82155     11.66937      2.68992        -0.029747      0.005621      0.644824
O       5.83931     11.63200     15.91819         0.164628      0.712765      0.287217
O       5.77004     11.72921      7.17292         0.019241     -0.158973      0.306441
O       5.85054     11.76817     11.54829        -0.433840     -1.078767      0.588025
O       9.82074      3.95266      2.80466        -0.928988     -0.452787      0.036187
O       9.63678      3.89496     15.85657         0.175630     -0.448211      0.706343
O       9.71608      0.01814      2.72093         0.301872     -0.705897      0.451544
O       9.68759     15.57316     15.98499         0.434548      0.216087      0.158721
O       9.75127      3.89061      7.24883        -0.172657      0.185829     -0.159478
O       9.65562     15.54663      7.15995         0.418027      0.376026      0.071956
O       9.72111      3.82849     11.53602        -0.288721      0.777448      0.134821
O       9.69252     15.51961     11.48058         0.429447      0.371183      0.579850
O       9.67005      7.70025      2.80154         0.185655      0.834831     -0.050897
O       9.80856      7.73621     16.05931        -0.332316      0.867911     -0.298366
O       9.69353      7.86910      7.13653         0.142202     -0.611048      0.156315
O       9.71518      7.81342     11.49889         0.004070     -0.471125      0.820346
O       9.76055     11.65125      2.71415        -0.015788      0.384287      0.165125
O       9.68432     11.66102     15.96727         0.167377      0.245170      0.287034
O       9.64501     11.70221      7.21190         0.850012     -0.712537     -0.111953
O       9.80398     11.62576     11.54021        -0.668948      0.534617      0.434865
