  # total energy = -7878.12379048 
CRSYTAL
PRIMVEC
    15.3600000000000000    0.0000000000000000    0.0000000000000000
     0.0000000000000000   15.3600000000000000    0.0000000000000000
     0.0000000000000000    0.0000000000000000    17.440000000000000
PRESSURE
0.929475 1.12836 0.620618 0.122071 0.314717 -0.047663
PRIMCOORD
320 1
Pb       3.80496      3.80499      4.43502        -0.045223      0.090582     -0.639254
Pb       3.91443      3.73386     17.38618        -0.288172      0.251309     -0.314962
Pb       3.77261     15.29750      4.40652        -0.081459     -0.100168      0.326539
Pb       3.81136     15.34645     17.37431        -0.262185     -0.037577     -0.468679
Pb       0.03660      3.77938      4.43305        -0.399625     -0.189190     -0.832729
Pb       0.16634      3.85899      0.07821        -0.647763      0.075036     -0.625444
Pb       0.07511     15.27796      4.32832        -0.512905      0.414967     -0.134227
Pb      15.11560     15.25645      0.02740         0.498224      0.513895     -0.501657
Pb       3.71754      3.92636      8.66875         0.524447     -0.558816     -0.409554
Pb       3.83994      0.00496      8.81865        -0.092907      0.083521     -0.929968
Pb      15.08355      3.98778      8.66924         0.021727     -0.975896     -0.021457
Pb      15.21804      0.15138      8.76692         0.038989      0.200569     -0.444518
Pb       3.83687      3.73898     12.93310         0.062829      0.630740     -0.275798
Pb       3.70412     15.26512     12.90761         0.254593     -0.241143     -0.034427
Pb       0.02717      3.66331     13.14334        -0.462703      0.205833     -0.132204
Pb       0.03009     15.33480     12.97706        -0.750128      0.154377     -0.113124
Pb       3.88788      7.65254      4.30055         0.314222     -0.001963     -0.517677
Pb       3.67094      7.57759     17.43739         0.183688      0.126930     -0.157270
Pb       0.20255      7.74423      4.33258        -0.828046      0.108005     -0.853221
Pb      15.22982      7.72396     17.37560         0.102536     -0.445574     -0.320666
Pb       3.93430      7.67635      8.74647         0.082435     -0.096324     -0.258476
Pb      15.34525      7.64348      8.71926        -0.601195      0.085540     -0.229442
Pb       3.79026      7.58765     13.04202        -0.133051      0.031628     -0.613613
Pb       0.06112      7.64181     13.16593        -0.205313      0.111899     -0.591159
Pb       3.64915     11.50996      4.31772         0.976892      0.382977      0.133603
Pb       3.96895     11.36474     17.33720        -0.086470      0.636906     -0.446631
Pb       0.08403     11.65701      4.23287        -0.428394     -0.283627     -0.440097
Pb      15.21360     11.49403     17.30901         0.188435      0.405574     -0.037198
Pb       3.79216     11.57727      8.73643         0.140217      0.050610     -0.331421
Pb      15.29324     11.36733      8.74174         0.308461      0.161247     -0.427051
Pb       3.91727     11.45165     12.97786        -0.165360      0.317806     -0.429035
Pb       0.16252     11.49653     13.16005        -0.161266     -0.078743     -0.658859
Pb       7.72435      3.68464      4.42296         0.001894      0.176262     -0.405903
Pb       7.61416      3.85832     17.38941         0.431078     -0.059400     -0.446706
Pb       7.72754     15.34021      4.41108         0.112028      0.140465     -0.609710
Pb       7.44221     15.31547     17.37898         0.484552      0.008551     -0.699021
Pb       7.65316      3.83455      8.70874         0.107898     -0.014512     -0.717057
Pb       7.66661     15.27673      8.61449        -0.072358      0.109790     -0.230185
Pb       7.83535      4.00421     13.24571         0.058966     -0.435991     -0.685336
Pb       7.61333      0.19044     13.02399        -0.079141     -0.473739     -0.288940
Pb       7.62196      7.48722      4.27214        -0.065539      0.695053      0.516290
Pb       7.56571      7.67845      0.00219         0.204755     -0.015201     -0.059390
Pb       7.61124      7.83789      8.67596         0.273670     -0.520630     -0.319713
Pb       7.58556      7.62799     12.96727         0.758640      0.256946     -0.397601
Pb       7.72552     11.38368      4.40640        -0.772199      0.248233     -0.702013
Pb       7.53691     11.61238     17.37697         0.379139      0.178864     -0.622304
Pb       7.66673     11.51232      8.69613        -0.142670      0.058563     -0.176932
Pb       7.82450     11.58596     13.03543        -0.569322      0.049627     -0.096318
Pb      11.52103      3.74619      4.35409        -0.152201     -0.350196     -0.784162
Pb      11.61413      3.80691      0.09551        -0.251905     -0.029315     -0.630574
Pb      11.57211     15.27647      4.32548        -0.054978      0.306576     -0.732774
Pb      11.35731     15.24750     17.37172         0.033277      0.132272     -0.097153
Pb      11.49433      4.05965      8.71770        -0.273113     -0.872844     -0.259335
Pb      11.44997     15.30260      8.66218         0.178939      0.391865      0.069657
Pb      11.57950      3.68938     13.31094        -0.181136      0.106800     -0.601266
Pb      11.47163     15.33171     13.06322         0.599097      0.289139     -0.849097
Pb      11.52622      7.68776      4.21187        -0.085845     -0.079437     -0.053602
Pb      11.44542      7.59007      0.07156         0.518175      0.465869     -0.933749
Pb      11.54522      7.68932      8.69785        -0.056514      0.244971     -0.458395
Pb      11.39843      7.66714     13.08917        -0.221904     -0.291001     -0.605993
Pb      11.57085     11.38268      4.37034        -0.087114      0.328776     -0.698851
Pb      11.32418     11.47495     17.37944         0.525152     -0.244548     -0.169077
Pb      11.53761     11.53246      8.82372         0.042588     -0.296907     -0.784488
Pb      11.47984     11.43673     13.00886         0.492385      0.155967     -0.224429
Ti       1.83636      1.86426      2.29279        -0.247424      0.749553     -0.365928
Ti       1.85075      1.87275     15.43865        -0.387242     -0.377874      0.432509
Ti       2.00238     13.54637      2.17915        -0.903469     -1.433447     -0.803299
Ti       1.99098     13.45012     15.39672        -0.801362      0.174853     -0.380799
Ti      13.33669      1.88802      2.21282         0.074489     -0.197833      1.258256
Ti      13.35761      1.90090     15.46174         0.649144      0.021885     -1.089057
Ti      13.41838     13.37739      2.27459        -0.652914      0.247231     -0.027466
Ti      13.42864     13.41898     15.28494        -0.235994     -0.201625      0.119226
Ti       1.80954      1.89919      6.68215         0.325773     -0.400494      0.968999
Ti       1.85596     13.45578      6.80892         0.973859      0.141074     -0.363936
Ti      13.30950      1.83262      6.66791         0.672046      0.522548     -0.555790
Ti      13.52112     13.35565      6.63880        -0.843087      1.380201      0.833686
Ti       1.85640      1.95270     10.98909        -0.628651     -0.513839     -1.027906
Ti       1.84558     13.37513     10.91318         0.892287     -0.222698      1.007063
Ti      13.35669      2.05071     11.01825        -0.502809     -1.121374      0.331953
Ti      13.43724     13.42844     10.90126        -0.063203      0.618417      2.062601
Ti       1.95597      5.76333      2.30316        -0.141391     -0.064268      0.087126
Ti       1.98156      5.66374     15.38587        -0.726100      0.749575      0.712837
Ti      13.47944      5.80200      2.30202         0.053982     -1.032095      0.051923
Ti      13.43137      5.70111     15.41760         0.203465      0.635270      1.481941
Ti       1.86521      5.79399      6.62673         1.190473     -1.045941     -0.388712
Ti      13.41965      5.75376      6.51836        -0.222115      0.114320      0.579609
Ti       1.77718      5.67644     11.01500         1.168624      0.756807      2.440740
Ti      13.43791      5.79421     11.10630        -1.425100     -0.081853     -0.151652
Ti       1.96168      9.66838      2.20326        -0.601101     -0.803492     -0.665147
Ti       2.06585      9.59989     15.39516        -0.595713     -0.362880     -0.576895
Ti      13.37531      9.59072      2.23279         0.615542      0.187777     -0.038523
Ti      13.49722      9.64390     15.29931        -1.508579     -0.537132      1.975972
Ti       1.95781      9.50743      6.75206        -0.050668      1.436320      0.783511
Ti      13.46063      9.58734      6.62387        -1.114950     -0.460489      0.127325
Ti       1.96833      9.48378     11.01678        -0.559656      1.316704      2.148461
Ti      13.45617      9.56943     11.03445         0.553335      0.005151      1.589208
Ti       5.60454      1.90391      2.31846         0.806803      0.368117      0.747129
Ti       5.63048      2.04742     15.25208         0.848061     -1.679311      0.556871
Ti       5.72853     13.54932      2.31125         0.234155     -2.126009      0.983759
Ti       5.71490     13.55149     15.21951         0.438011     -1.078756      1.010442
Ti       5.70846      1.84484      6.68265        -0.422494      0.277433      1.209903
Ti       5.78455     13.36453      6.65394        -0.651330      0.526842      0.617656
Ti       5.72474      1.87887     11.00567         0.086849      0.626965     -0.455742
Ti       5.82558     13.45703     11.00323        -0.346741     -0.190637      0.803909
Ti       5.81011      5.74238      2.32051        -0.273952     -0.265017      0.598411
Ti       5.80721      5.78450     15.30150        -0.892289      0.108364      2.215533
Ti       5.73095      5.72171      6.67581         0.658855      0.349446      0.152797
Ti       5.75440      5.71224     10.97602        -0.953194     -0.303337     -0.210537
Ti       5.76600      9.68908      2.26967        -0.118470     -0.023399      3.076114
Ti       5.87286      9.51215     15.32467        -1.213290      1.478406      0.246966
Ti       5.70065      9.63996      6.67531         0.025410     -0.027374      0.248976
Ti       5.80542      9.59690     11.04833        -0.433175      0.116481     -0.208694
Ti       9.44173      1.94369      2.11476         1.170873     -1.043002      0.133331
Ti       9.45498      1.86434     15.38885         0.534390      1.037029      0.349253
Ti       9.53355     13.34760      2.26611         0.512657      0.727059     -0.789169
Ti       9.56294     13.46130     15.31918        -1.073608     -0.338483      1.280305
Ti       9.58074      1.91664      6.76206        -0.203775      0.461557      0.682885
Ti       9.68773     13.33377      6.63073        -0.028068      1.334343      0.787190
Ti       9.56752      1.99355     10.93966         0.962805      0.190605     -1.117904
Ti       9.68161     13.44906     10.93129        -0.772887      0.533872      0.358115
Ti       9.60037      5.73758      2.33768         0.841886     -0.373960      0.969737
Ti       9.57888      5.78102     15.42567         0.821739     -0.850226     -0.863634
Ti       9.60946      5.83912      6.56398        -0.878759     -0.777533      0.077464
Ti       9.57965      5.74783     10.97134         0.650093      0.459246      1.964493
Ti       9.50695      9.60045      2.34396         0.284479     -0.323245     -0.095167
Ti       9.55538      9.60290     15.40215         1.434586     -0.269002     -0.557287
Ti       9.54859      9.60428      6.57043         0.885613     -0.915398     -0.142619
Ti       9.58059      9.64544     10.99399        -0.131816     -1.670389      0.102088
O       1.95914      1.85210      0.49944        -0.035209      0.427419      0.572460
O       1.68428      1.88999     13.69895         0.409635      0.042367     -1.737272
O       1.96233     13.43354      0.40935         0.074803      0.240985      0.096403
O       2.00961     13.46910     13.59351        -0.274609     -0.035975     -0.176610
O      13.41624      1.86118      0.48196        -0.233201      0.038319     -2.013892
O      13.36725      1.90073     13.59050        -0.081723      0.170517      0.811135
O      13.38990     13.22097      0.53351         0.094226      0.531795     -1.327069
O      13.42388     13.48526     13.54313        -0.227702     -0.153085     -0.245676
O       1.84138      1.76769      4.93142        -0.186284      0.407886     -1.266778
O       2.04832     13.49757      5.03423        -0.611817     -0.175810     -1.310803
O      13.26415      1.80329      4.88061         0.174931      0.477873     -0.654422
O      13.54248     13.36863      4.89025        -0.247959     -0.085157     -1.729698
O       1.80697      1.89951      9.20699        -0.093358      0.207911      0.209795
O       1.95398     13.50320      9.17064        -0.647596     -0.152125     -0.318861
O      13.44961      2.07852      9.26395         0.036421     -0.257086     -1.462910
O      13.46808     13.46391      9.17709        -0.036802     -0.144991     -1.420556
O       1.87430      5.72554      0.52505         0.772147     -0.477578     -0.440618
O       1.97979      5.76663     13.66231        -0.329475     -0.127376     -1.050165
O      13.38698      5.76494      0.53231        -0.065043     -0.149140     -0.327159
O      13.50893      5.61920     13.72433        -0.246899      0.549055     -2.520076
O       1.92033      5.86829      4.83003        -0.129057      0.025984     -0.102444
O      13.59711      5.73590      4.78350        -0.195628     -0.021908     -0.902182
O       1.93047      5.67355      9.33641        -0.360460      0.050992     -2.650865
O      13.35701      5.86306      9.31402         0.632067     -0.189682     -1.008991
O       1.89329      9.51579      0.43845         0.402872      0.704721     -0.325221
O       2.07575      9.51875     13.59737        -0.164212      0.161720      0.027236
O      13.28861      9.56189      0.46808         0.541858      0.311653     -0.046860
O      13.48586      9.65241     13.59484        -0.213239     -0.145417     -1.942948
O       2.03571      9.41927      5.01176        -0.234963      0.082267     -1.178793
O      13.43657      9.56365      4.88400         0.195276      0.162453     -0.994398
O       1.85882      9.55306      9.34137        -0.293402     -0.284780     -3.410872
O      13.47474      9.41437      9.31079         0.124746      0.166461     -1.764802
O       5.54296      1.87094      0.57096         0.424807      0.281979     -1.181113
O       5.69538      2.03990     13.53114         0.189397     -0.275192     -1.495036
O       5.73089     13.59840      0.57164         0.006462     -0.414762     -1.438239
O       5.74041     13.58667     13.50838         0.002460     -0.583250     -1.731052
O       5.72074      1.73985      4.95690        -0.172278      0.527773     -1.781962
O       5.73979     13.30317      4.90693        -0.114103      0.418642     -0.269623
O       5.74785      1.92134      9.24993         0.061942     -0.443641     -0.692082
O       5.88862     13.50728      9.25994        -0.222450     -0.120385     -1.108817
O       5.87889      5.75645      0.57027        -0.177053     -0.160124     -0.619891
O       5.86346      5.71492     13.61907        -0.022695      0.119164     -2.825177
O       5.78571      5.85062      4.90912        -0.320080     -0.378701     -0.567024
O       5.70669      5.79043      9.19431         0.247398     -0.026288     -0.148021
O       5.74712      9.55201      0.59535         0.222639      0.191389     -3.111031
O       5.82173      9.62252     13.59074        -0.069235     -0.418131     -1.186953
O       5.69462      9.77556      4.95111        -0.262997     -0.179444     -1.109202
O       5.84763      9.47218      9.28422        -0.242912      0.449680     -0.651866
O       9.50649      1.92261      0.31444        -0.144630      0.310639      0.502684
O       9.63161      1.97767     13.60347        -0.252896     -0.506456     -0.960121
O       9.55218     13.26284      0.43621        -0.242713      0.216987      0.642406
O       9.55498     13.39262     13.61114         0.005388      0.258135     -2.505550
O       9.56428      1.83473      5.01932         0.089566     -0.219577     -1.442976
O       9.77565     13.51285      4.89750        -0.523134      0.022772     -1.072292
O       9.76300      2.20255      9.13575        -1.102385     -0.742459      0.383680
O       9.78950     13.24489      9.16199        -0.427859      0.133414      0.143628
O       9.56605      5.56887      0.62385        -0.050400      0.122114     -2.183642
O       9.56903      5.86663     13.60212        -0.251323     -0.369561      0.278469
O       9.59736      5.83826      4.78251         0.321234      0.082301      0.038614
O       9.49477      5.66175      9.28031         0.185080      0.266854     -2.345870
O       9.50361      9.75727      0.60224        -0.061650     -0.166134     -1.461715
O       9.64403      9.51266     13.61065        -0.284385      0.240988      0.034320
O       9.61660      9.55144      4.76001         0.036050      0.001472      0.696629
O       9.56463      9.64365      9.24578         0.100214      0.270889     -1.206295
O       3.77228      1.98724      2.68898        -0.361869      0.072533      0.583900
O       3.80067      1.77691     15.68155         0.335038      1.093629      0.527242
O       3.80455     13.42878      2.72124         0.140853      0.054427      0.091464
O       3.82092     13.47983     15.73334         0.553024     -0.017238      0.312778
O      15.27951      1.64964      2.59134         0.937638      0.875942      0.422569
O       0.00192      1.89538     15.85353        -1.373974     -0.012994      0.375510
O      15.34490     13.39061      2.46826         1.135147      0.503512      1.076579
O      15.34808     13.24757     15.60592        -0.330275      0.540240      0.615719
O       3.75141      1.76266      7.09659         1.092764      0.387350      0.103771
O       3.80505     13.40105      7.14312         1.109709      0.226983      0.278355
O      15.22184      2.02189      7.00413         1.506067     -0.018631      0.437510
O      15.33856     13.43361      6.99450         0.307977     -0.098228      0.717231
O       3.76564      1.85740     11.22099        -0.328124      0.094595      0.783466
O       3.85900     13.45527     11.29568        -0.994919      0.307032      0.219144
O      15.22556      1.95255     11.33679         2.102755      0.247009      0.755450
O      15.25916     13.36964     11.39369         1.944286     -0.102173     -0.041283
O       3.93831      5.67366      2.74215        -0.648407     -0.125867      0.039690
O       3.91325      5.65284     15.67727        -0.874014      0.497313      0.644010
O       0.09876      5.78903      2.53002        -0.611373      0.349528      0.845782
O      15.31696      5.68114     15.81934         0.997960      0.204465      0.301550
O       3.83830      5.79463      7.00868        -0.093214     -0.003728      0.376857
O       0.00491      5.69702      6.98788         0.168777      0.299698      0.163493
O       3.76053      5.68860     11.37469         0.812144      0.355513      0.530263
O      15.29205      5.66806     11.43018         1.557904      0.298606      0.319312
O       3.83647      9.68558      2.59199         0.122395      0.033213      0.494207
O       3.92361      9.48193     15.83781        -0.317676      0.238177      0.102263
O       0.02353      9.48854      2.56143         1.008993      0.203303      0.600741
O      15.35556      9.74074     15.61908         0.264298     -0.595110      0.438600
O       3.79382      9.62544      7.26424         0.072341      0.087912     -0.233657
O      15.31437      9.51753      7.05751         1.131497      0.051443      0.548638
O       3.86611      9.52559     11.33228         0.529208      0.093906      0.584830
O       0.01851      9.66853     11.41093         0.175848     -0.041874      0.500982
O       7.60393      1.91126      2.72113         0.131331     -0.471064      0.041181
O       7.58478      2.04957     15.62668        -0.466649     -0.571653      0.370967
O       7.64557     13.48293      2.63469         0.319599      0.067659      0.484154
O       7.57871     13.49772     15.70401         0.096404     -0.442552      0.625824
O       7.62268      1.90118      6.91566         0.721899      0.109450      1.008479
O       7.71884     13.32063      6.98094         0.287412      0.348488      0.320003
O       7.62488      1.86309     11.29895         1.021415      0.208135      0.434707
O       7.73149     13.42318     11.26082         0.692427      0.080506      0.576390
O       7.77531      5.70297      2.79914        -1.264437      0.224160     -0.166626
O       7.63628      5.73529     15.77186         0.985854     -0.301639      0.447954
O       7.67336      5.79762      6.88013        -0.024488      0.165993      0.680182
O       7.60421      5.70450     11.38829         0.661068     -0.131799      0.349555
O       7.65242      9.55179      2.75342         0.237037      0.202017      0.174286
O       7.66723      9.56721     15.76376         0.264924     -0.167697      0.534203
O       7.62194      9.63413      6.94781         1.234792      0.165026      0.424052
O       7.67699      9.63253     11.23929         0.053172      0.015717      1.081011
O      11.42854      1.99240      2.54740        -0.147161     -0.441820      0.340268
O      11.48361      1.91365     15.67025         0.045147     -0.486724      0.620791
O      11.50975     13.27906      2.54911        -0.501881      0.266859      0.717698
O      11.38698     13.52830     15.62265         0.973676     -0.180204      0.559531
O      11.50080      1.98097      6.99268        -0.447118     -0.386755      0.581025
O      11.54718     13.52072      7.06801         0.328282     -0.645223      0.002003
O      11.44871      1.97296     11.24984         0.360539     -0.191985      1.225047
O      11.55305     13.41488     11.32236        -0.685300     -0.158300      0.458601
O      11.56326      5.77188      2.69988         0.182501     -0.495964      0.239488
O      11.48680      5.74246     15.73702        -0.524892     -0.166973      0.574874
O      11.52040      5.75132      6.91285        -0.000634      0.421480      0.189202
O      11.53015      5.95404     11.32711        -0.455815     -0.316601      0.528424
O      11.50393      9.71234      2.62692         0.504422     -0.530312      0.529593
O      11.50012      9.60524     15.76558        -0.923939     -0.044988     -0.018693
O      11.53284      9.51851      6.98958        -0.112047      0.492949      0.280305
O      11.46670      9.65334     11.28923         1.074810     -0.617618      0.693903
O       1.80242      3.78660      2.82008         0.311157     -0.113409     -0.167276
O       1.86739      3.78184     15.74640         0.562818      0.636737      0.636241
O       1.91291      0.00717      2.71237         0.474059     -0.454358      0.115857
O       1.88797      0.02765     15.76027        -0.200095     -1.661372      0.344676
O      13.50494      3.75389      2.49413         0.120868      1.094580      0.946736
O      13.36929      3.81325     15.66166        -0.109589     -0.993549      0.932470
O      13.32444     15.33761      2.47269        -0.195595     -1.214459      0.735231
O      13.37580     15.29486     15.75095         0.329924      0.150069      0.575682
O       2.16799      3.82706      6.84652        -1.079026      0.627169      0.169684
O       1.91697      0.00946      6.95356        -0.773212      0.005776      1.048586
O      13.39831      3.85366      6.98965         0.031677      0.845705      0.115348
O      13.52195     15.33676      6.84578        -0.432720      0.107257      1.139775
O       1.90444      3.82137     11.51562        -0.275935     -0.622308     -0.161668
O       1.80109      0.01258     11.36944         0.069279     -0.391434     -0.031753
O      13.40995      3.90496     11.33457        -0.347788     -0.116007      0.823518
O      13.45586      0.07834     11.29890        -0.328234     -1.179177      0.254757
O       2.21760      7.67887      2.39519        -0.708123     -0.052168      1.269791
O       1.91518      7.65114     15.66455        -0.006258     -0.248395      0.747087
O      13.46005      7.66109      2.52749        -0.266249      0.547068      0.709983
O      13.38690      7.65075     15.86259         0.389781      0.781305     -0.463080
O       2.02722      7.61244      7.10571        -0.823931      0.404979      0.332391
O      13.45128      7.65651      6.95036         0.181692     -0.528817      0.462060
O       1.94220      7.67636     11.44345        -0.539731     -1.681918      0.360761
O      13.62332      7.64511     11.44893        -0.366474      1.185427      0.750433
O       2.02058     11.61332      2.63456        -1.031474     -0.967593      0.089013
O       1.96638     11.48350     15.52692         0.569863     -0.010984      0.890659
O      13.58079     11.46058      2.63668        -0.212191     -0.155602      0.732314
O      13.26472     11.55060     15.66712         0.388600     -0.372254      0.291641
O       1.86616     11.51072      6.98200        -0.103542     -1.032370      0.821524
O      13.44166     11.55125      7.00505        -0.000669     -1.734922      0.672991
O       2.05860     11.47566     11.20631        -0.622575      1.097636      0.778932
O      13.38350     11.49451     11.23093        -0.079471      0.014995      0.196100
O       5.82953      3.82174      2.65911        -0.219999     -0.131115      0.374284
O       5.76305      3.86011     15.64374        -0.428467      0.192775      0.918003
O       5.52761     15.34147      2.57977         0.751116      1.271515      0.922582
O       5.77606      0.01893     15.50252        -0.081800      1.174885      1.064947
O       5.76498      3.82491      7.06885        -0.422768      0.041752     -0.228719
O       5.89831     15.32215      7.00123        -0.460764     -0.782325      0.483102
O       5.67362      3.77784     11.30751         0.012145      0.728592      0.366956
O       5.71861     15.32421     11.42604         0.255782      0.737925      0.203193
O       5.84712      7.72297      2.60380        -0.463201     -1.045159      0.609054
O       5.84645      7.66863     15.76959        -0.295938     -0.447761      0.003972
O       5.71854      7.79061      6.96390        -0.101021     -1.321892      0.716333
O       5.81099      7.65983     11.34431        -0.277277     -0.396117      0.551379
O       5.85463     11.56573      2.64257        -0.336776     -0.255177     -0.069322
O       5.69886     11.52637     15.62188         0.024939     -0.391789      0.755217
O       5.77050     11.52045      7.19379        -0.278002      0.094991      0.239944
O       5.75263     11.55618     11.39633         0.035019     -0.628231      0.129564
O       9.61778      3.77237      2.64730        -0.409828      0.113384      0.588376
O       9.56878      3.76788     15.56744        -0.184986      1.617238      0.716840
O       9.49901     15.33669      2.38902         0.553236      0.027504      0.767590
O       9.38256     15.35881     15.67978         0.539250     -0.188260      0.495080
O       9.56731      3.88876      6.91054        -0.030753      0.185996      0.318506
O       9.64886     15.31751      7.17536        -0.590785      0.210348     -0.104263
O       9.71393      3.87476     11.28699        -0.861148     -0.047670      1.072444
O       9.71156      0.02186     11.15077        -0.443135     -0.652926      0.404975
O       9.73024      7.67306      2.44742        -0.328354     -0.106475      0.717477
O       9.60016      7.62238     15.72596        -0.401897      0.743680      0.875708
O       9.61302      7.73096      7.06991        -0.227418     -0.292875     -0.044688
O       9.56316      7.67515     11.32160        -0.379654      0.446077      0.552774
O       9.58588     11.45614      2.72846        -0.477445      1.269654      0.535461
O       9.38722     11.51274     15.60622         0.537499     -0.131532      0.537744
O       9.66240     11.48144      6.87294         0.113168     -0.378056      0.425219
O       9.59497     11.47480     11.45828         0.151248      1.385732      0.162704
