  # total energy = -7861.46729121 
CRSYTAL
PRIMVEC
    15.010000000000000    0.0000000000000000    0.0000000000000000
     0.0000000000000000   15.010000000000000    0.0000000000000000
     0.0000000000000000    0.0000000000000000    16.400000000000000
PRESSURE
15.3846 15.3869 9.38181 -0.204716 -0.021716 0.068082
PRIMCOORD
320 1
Pb       3.95612      3.71755      4.40966        -0.605486      0.253967     -0.881731
Pb       3.82358      3.79131      0.17836         0.092712     -0.279980     -0.400187
Pb       3.62945      0.15082      4.14682         1.110969     -0.633972      0.052112
Pb       3.70478      0.01842     16.36024         0.153563     -0.115827      0.681099
Pb      14.99097      3.64972      4.04360         0.113871      0.490116      0.118528
Pb       0.06552      3.74255     16.36743        -0.287816     -0.120032      0.535189
Pb       0.06149      0.02631      4.14788        -0.506027     -0.319186      0.040949
Pb      14.90314      0.01217      0.03321         0.122609      0.313867     -0.324848
Pb       3.81989      3.67919      8.34093         0.704799      0.392067     -0.665689
Pb       3.78765     14.79617      8.34265         0.532790      0.637454     -0.689896
Pb       0.17851      3.80315      8.33263        -1.213523     -0.747462     -0.430270
Pb       0.04465     14.88406      8.23772        -0.128150      0.551960      0.150557
Pb       3.74216      3.76328     12.22865         0.501790      0.895441      0.591003
Pb       3.74206     15.00281     12.52406         0.014386     -0.502218     -0.609550
Pb       0.08839      3.70397     12.33279        -0.299484      0.175713     -0.551562
Pb       0.03106      0.02881     12.32053         0.053239     -0.491195      0.072542
Pb       3.50457      7.52216      4.11950         0.698987     -0.575879     -0.107147
Pb       3.71649      7.36753      0.28691         0.524508      0.520607     -1.056547
Pb      14.84509      7.47336      4.11864         0.571297     -0.224221     -0.373906
Pb      14.92322      7.55352      0.04781        -0.276224     -0.082279     -0.116748
Pb       3.70085      7.50764      8.07492         0.145869      0.057273      0.965913
Pb      14.98214      7.47547      8.26539         0.010674      0.554139     -0.104399
Pb       3.75168      7.59806     12.30609         0.025124     -0.663027      0.359555
Pb       0.08666      7.32327     12.36437        -0.369583      1.056183     -0.256341
Pb       3.50863     11.33283      4.19379         0.785001     -0.159837     -0.605404
Pb       3.65981     11.09155     16.32064         1.079622      0.552592     -0.028236
Pb      14.93027     11.28646      4.09794         0.062181      0.044842     -0.001718
Pb      14.87614     11.36183      0.03210         0.392246     -0.755746     -0.026736
Pb       3.65953     11.11678      8.33051         0.160050      0.332407     -0.779859
Pb      14.96224     11.14488      8.27315         0.076326      0.111808     -0.520056
Pb       3.71079     11.33567     12.37824         0.143101     -0.572026      0.129748
Pb      14.99535     11.29082     12.34504         0.347103      0.253845      0.136625
Pb       7.58510      3.65374      4.22153        -0.632285     -0.300525     -0.470913
Pb       7.59242      3.83086     16.38856        -0.835864     -0.258647      0.012636
Pb       7.49456     14.95951      4.26728        -0.668691      0.010165     -0.578699
Pb       7.36872      0.04805      0.02647         0.612099      0.420636      0.084714
Pb       7.57140      3.66726      8.25251        -0.356582      0.035551     -0.109551
Pb       7.55982     14.93156      8.32530        -0.348508      0.133675     -0.074327
Pb       7.52615      3.71588     12.24951         0.568828      0.131881      0.427627
Pb       7.60631     14.83897     12.48201         0.116118      0.951573     -0.238170
Pb       7.26792      7.56334      4.06596         0.914384     -0.062609      0.401310
Pb       7.52150      7.52366      0.11287        -0.900897     -0.429222     -0.519541
Pb       7.46390      7.51641      8.40337         0.489079      0.567580     -0.765934
Pb       7.59118      7.39684     12.55470        -1.071899      0.319206     -1.150623
Pb       7.40844     11.37820      4.10374        -0.157438     -0.509771     -0.521285
Pb       7.52885     11.28541      0.11374        -0.239680     -0.610361     -0.379028
Pb       7.36816     11.17016      8.33955         0.725697     -0.105484      0.119982
Pb       7.52348     11.13541     12.43101         0.065363     -0.072002     -0.615551
Pb      11.14143      3.73380      4.15843         0.832102      0.266391     -0.221313
Pb      11.28326      3.79010     16.38825        -0.382864      0.026454      0.032380
Pb      11.34084      0.05422      4.24409         0.066555     -0.368290     -0.007579
Pb      11.04760     14.98201      0.16280         0.527844      0.325394     -0.874750
Pb      11.39550      3.80709      8.14746        -0.398910     -0.030200      0.394482
Pb      11.27434     14.86945      8.30567         0.426238      0.249329     -0.377694
Pb      11.36275      3.72091     12.24232        -0.759936      0.791525     -0.038976
Pb      11.30044      0.15486     12.30596        -0.153238     -0.702248     -0.012068
Pb      11.15889      7.45036      4.20791         0.178324      0.092341     -0.226215
Pb      11.10786      7.50302      0.15865         0.687803      0.041962     -0.642776
Pb      11.08928      7.47373      8.20615         0.139566     -0.021616     -0.032062
Pb      11.36992      7.35831     12.30599        -0.100596      0.340859      0.266970
Pb      11.24894     11.30358      4.19029         0.105644     -0.587834     -0.351014
Pb      11.23295     11.13287      0.07991        -0.164610      0.069293     -0.008199
Pb      11.02804     11.10756      8.32980         0.178551      0.038521      0.038464
Pb      11.21327     11.29084     12.26835         0.301204     -0.196266      0.259516
Ti       1.84670      1.83055      2.05865        -0.163308      1.229009     -0.139857
Ti       1.93066      1.91377     14.38031        -0.467497     -0.382253     -0.238520
Ti       1.87252     13.15956      1.94051         0.270598     -0.526192      0.771393
Ti       1.90774     13.15737     14.42095        -1.016980     -0.804141      0.532619
Ti      13.04050      1.93915      2.02795         1.638335     -0.353287     -0.456959
Ti      13.12561      1.93163     14.26957        -0.315003     -0.982766      1.747838
Ti      13.06502     13.17283      2.06038         0.339174     -0.647534      0.246211
Ti      13.06962     13.16070     14.46329         0.534061      0.235965     -1.655389
Ti       1.91420      1.90333      6.23486        -0.340690     -0.605951     -0.480592
Ti       1.85167     13.15259      6.15917        -0.267684     -0.411118      0.886312
Ti      13.17923      1.91016      6.19188        -0.078312     -0.763117     -0.099159
Ti      13.08929     13.05221      6.22227         1.051306     -0.010834     -0.282331
Ti       2.06460      1.85824     10.19627        -1.939954     -0.936533      0.790951
Ti       2.00664     13.07148     10.21893        -1.206060     -0.407662      0.305872
Ti      13.23219      1.92326     10.23083         0.016059     -0.686493     -0.294371
Ti      13.21536     13.17294     10.22077        -0.489086     -0.686579      0.343611
Ti       1.82549      5.62879      2.03753        -0.730030     -0.557848      1.666776
Ti       1.91614      5.58117     14.28538         0.284889      1.041397      0.710087
Ti      13.08031      5.67246      2.00199         0.123321     -0.880074     -0.048861
Ti      13.19498      5.63230     14.34303        -0.756254      0.448357     -0.009171
Ti       1.83653      5.62083      6.18341         0.009562     -0.633454     -1.326138
Ti      13.16281      5.62930      6.14984        -0.990850     -0.845152     -0.967553
Ti       1.90728      5.63171     10.15604         0.955767      0.346859      1.162992
Ti      13.20515      5.67511     10.14546        -1.548936     -0.457851      1.459740
Ti       1.89995      9.47095      2.02345        -0.561837     -0.312113      0.748623
Ti       1.84278      9.30767     14.50637         0.169569      0.386541     -1.857763
Ti      13.16112      9.38419      2.05214        -0.871512      0.235039     -0.581263
Ti      13.10629      9.46556     14.18309        -0.350176     -1.589613      1.458395
Ti       1.78485      9.35563      6.13419         0.195241      0.746872     -0.117537
Ti      13.02132      9.29114      6.12917         0.057465      1.199262      0.498111
Ti       1.89568      9.32262     10.31900        -1.317870      0.371364     -0.025764
Ti      13.07933      9.41679     10.22263         0.039711     -0.891594      0.461728
Ti       5.61679      1.90548      2.07375        -0.399699     -0.548198     -0.015343
Ti       5.61036      1.85523     14.31601         1.091806      2.138905      0.998615
Ti       5.54906     13.14560      1.88160        -0.116335     -0.639110      1.190633
Ti       5.70867     13.09777     14.39150        -1.031074     -0.768588     -0.023423
Ti       5.70112      1.85124      6.29578        -0.641173     -0.580153      0.923558
Ti       5.58995     13.05663      6.22979        -0.649169      0.044402     -0.890484
Ti       5.73188      1.84976     10.44184         0.751692     -0.539442     -1.612662
Ti       5.73285     13.15441     10.31563        -0.757393     -1.339616      0.600646
Ti       5.53759      5.63890      2.27722         0.027853     -0.315399     -0.990477
Ti       5.58197      5.63502     14.36116        -0.344289     -1.162018     -0.432593
Ti       5.68836      5.73869      6.25325        -0.839205     -0.998205     -0.106548
Ti       5.69405      5.69008     10.13946        -1.032073     -0.369303      2.173866
Ti       5.60766      9.37364      2.02912        -0.407032      0.871050     -0.358699
Ti       5.61893      9.29209     14.26996        -0.022613      0.634815      1.842026
Ti       5.57956      9.38592      6.01710        -0.445085      1.229991      0.514185
Ti       5.54806      9.34498     10.25137         1.271801      1.268295      2.307694
Ti       9.36025      1.88068      2.05169        -0.432807      0.641291     -0.551178
Ti       9.37788      1.90526     14.38982        -0.291780     -0.659291     -0.481924
Ti       9.35931     13.11022      2.13537        -0.913771     -0.417285     -0.585747
Ti       9.44406     13.09430     14.34625        -0.227792      0.022906      0.134858
Ti       9.48118      1.78784      6.19874        -0.236425      0.187303     -0.095180
Ti       9.30306     13.02328      6.19759         0.295720     -0.170167      0.148620
Ti       9.49979      1.87184     10.14904        -0.215016      0.282220      2.532510
Ti       9.42278     13.11175     10.33582        -0.141755     -1.190365     -0.133432
Ti       9.29464      5.61771      2.10015         0.139790     -0.189145     -0.599256
Ti       9.38596      5.64767     14.35217         0.286936     -1.132980      0.867088
Ti       9.28009      5.57744      6.06761         1.333787      0.555068      1.692717
Ti       9.38296      5.64959     10.29178         0.954935     -1.047581     -0.592210
Ti       9.32345      9.31027      2.10017         0.577561      0.767934      0.069425
Ti       9.40744      9.32197     14.31251        -0.014809      0.135993      0.548141
Ti       9.25280      9.33567      6.11094         0.161020     -0.156566     -0.037111
Ti       9.33059      9.25720     10.36073        -0.755942      2.200373     -0.394651
O       1.82359      1.81721      0.18737        -0.226967     -0.142421     -0.428883
O       2.04127      1.89559     12.48971        -0.382141     -0.014593     -0.150833
O       1.89765     13.11019      0.13132        -0.099421      0.173077      0.116047
O       1.82112     13.12309     12.63154         0.133213      0.199696     -2.325266
O      13.20724      1.87268      0.16289        -0.072266      0.022809     -0.339292
O      13.12031      1.88428     12.47521         0.262437     -0.050786     -1.288153
O      12.96402     12.98901      0.14734         0.055321      0.527005      0.160612
O      13.16413     13.10576     12.59518         0.402786      0.095642     -0.645389
O       1.94934      1.88723      4.33999        -0.400191     -0.201907      0.048162
O       1.68465     13.22642      4.36465         0.703633     -0.435603     -0.696434
O      12.96525      1.91184      4.30303         0.176195     -0.323032     -0.125368
O      13.17924     13.08004      4.34829        -0.339892      0.077952     -0.707527
O       1.89323      1.82464      8.40287         0.420553      0.261048     -0.684952
O       1.90164     13.10152      8.37552        -0.156988      0.028414     -0.033238
O      12.97533      1.87491      8.44238         0.450329     -0.257141     -1.232764
O      13.24922     13.07507      8.33962        -0.670438      0.012880      0.247524
O       1.89218      5.55957      0.24927        -0.047547      0.310577     -1.159623
O       1.91679      5.62418     12.44566        -0.304454     -0.274366     -0.557902
O      13.16947      5.68121      0.10477         0.013208     -0.414500     -0.076485
O      13.24684      5.55574     12.43451        -0.310809      0.022240      0.203937
O       1.63760      5.70383      4.31552         0.277580     -0.259732      0.403916
O      13.19430      5.58449      4.23212        -0.468739      0.150321      0.336790
O       1.75336      5.59862      8.34609         0.534736      0.165528     -0.963960
O      13.12748      5.62687      8.35637         0.158598      0.010941     -1.547951
O       1.87213      9.50896      0.18447        -0.557884     -0.421493     -0.707663
O       1.89914      9.27437     12.61399        -0.339584      0.286116     -0.732758
O      13.24249      9.38146      0.17516        -0.528950      0.142810     -0.009359
O      12.91748      9.28589     12.40610         0.883037      0.453340     -0.622430
O       1.92685      9.28143      4.28850        -0.758491      0.476133      0.236344
O      12.98998      9.26442      4.30195        -0.068859      0.132877     -0.512285
O       1.95072      9.38050      8.44803        -0.328686     -0.206639     -0.567901
O      12.93535      9.34163      8.38466         0.507900      0.188099     -0.376211
O       5.55261      1.94858      0.25488         0.062548     -0.282413     -0.023318
O       5.56340      1.78364     12.47235         0.200348      0.314029     -1.151960
O       5.68965     13.03667      0.06382        -0.057840      0.659966     -0.532662
O       5.53531     13.32224     12.55262         0.442868     -0.638943     -0.648121
O       5.62171      1.79598      4.47256         0.056797      0.379648     -1.616783
O       5.71221     12.97371      4.38207        -0.344382      0.589685      0.140201
O       5.73632      1.83834      8.36578        -0.222605      0.257235      0.586201
O       5.68435     13.02558      8.46573        -0.070508      0.525620     -0.813912
O       5.42324      5.53954      0.39211         0.079784      0.327854     -0.502795
O       5.39639      5.63961     12.55109         0.923902     -0.137825     -0.538834
O       5.57846      5.78441      4.43441         0.370084     -0.522209     -0.860402
O       5.66339      5.63744      8.37263         0.062001     -0.105177     -1.308438
O       5.60894      9.30303      0.21815        -0.023329      0.000683     -0.678699
O       5.57684      9.26317     12.50414         0.056908      0.136580     -0.879305
O       5.47718      9.28140      4.20801         0.657620      0.639570     -0.155903
O       5.53168      9.56319      8.51276         0.069961     -0.585575     -2.077037
O       9.28528      2.03726      0.19169         0.487749     -1.013759      0.433783
O       9.29239      1.84219     12.55667         0.189654      0.120163     -0.070933
O       9.39518     13.01346      0.25283         0.065827      0.580025     -0.697073
O       9.35377     12.96134     12.49738        -0.304952      0.902671     -0.453975
O       9.49835      1.84007      4.29820        -0.274801      0.165352     -0.113079
O       9.36378     12.99750      4.30371        -0.331404      0.399939     -0.369750
O       9.60602      1.85836      8.37896        -0.659521     -0.252379     -0.929369
O       9.30840     13.11507      8.46462         0.430235      0.109103     -1.047323
O       9.23723      5.64509      0.21657         0.486707      0.235814     -0.359119
O       9.39479      5.59561     12.56593        -0.267489      0.156627     -1.521116
O       9.31029      5.52196      4.29619        -0.086288      0.218040     -1.454379
O       9.25952      5.74543      8.45595         0.121608     -0.380585     -0.583588
O       9.20893      9.10153      0.17758         0.770248      1.000436     -0.208166
O       9.33834      9.25775     12.47834         0.078797      0.071901     -0.584542
O       9.29480      9.32299      4.25842         0.323408      0.100897     -0.623863
O       9.21371      9.27076      8.37241         0.855127      0.054876     -0.060280
O       3.68257      2.11795      2.27725         0.259745     -0.242148      0.358996
O       3.77683      1.43584     14.57929        -0.924989      0.519105     -0.241091
O       3.71448     12.84998      2.20860         0.265432      0.295667      0.097019
O       3.75679     13.49258     14.53772         0.190896     -0.200653      0.165945
O      14.92461      1.52123      2.32203         0.515405      0.191678     -0.085952
O      15.00477      2.28199     14.30178         0.584881     -0.334538      0.861015
O      14.96948     13.31288      2.16275        -0.494313      0.264453      0.002991
O      14.98868     12.81854     14.62082        -0.935461      0.137416      0.151146
O       3.72824      2.30578      6.39330         0.512421     -0.563634      0.159397
O       3.69399     12.58326      6.32044         0.749586      1.328963      0.222483
O      14.98791      1.51743      6.35949         0.412981     -0.193827      0.021179
O      14.99714     13.48980      6.40687         0.194139     -0.525751     -0.198997
O       3.86909      2.27253     10.31210        -0.637745     -0.565932      0.304419
O       3.82225     12.71819     10.38077        -0.627002      0.720051      0.300115
O       0.06219      1.56805     10.35263         0.446322      0.099986      0.643072
O       0.03859     13.42305     10.39806         0.193254     -0.082852      0.484844
O       3.62612      5.43595      2.52039        -0.111355     -0.318707     -0.364775
O       3.68100      6.00636     14.49324         0.059257      0.105067      0.681360
O      14.93314      6.03043      2.15064         0.584258     -0.476351      0.145323
O       0.01482      5.17874     14.44303        -0.239280     -0.013195      0.146339
O       3.69106      5.39632      6.32872         0.526771     -0.333377      0.450095
O      14.93490      5.93200      6.31123         0.500217      0.505360      0.568887
O       3.79552      5.34606     10.32344        -0.340755     -0.096155      0.075468
O       0.03259      5.90321     10.26797         0.222282      0.080751      0.704172
O       3.74442      9.66128      2.17224        -0.394601      0.315828      0.182563
O       3.72528      8.99613     14.58580        -0.435150      0.182810      0.286126
O      15.00408      9.28041      2.22699         0.290060     -0.656922      0.417237
O      14.91096      9.84944     14.45981         0.500882     -0.649993      0.293394
O       3.69024      9.83047      6.26168         0.284968     -1.183843      0.434503
O      14.93461      8.90069      6.34421         0.221949      0.429419     -0.090801
O       3.73037      9.67104     10.51280        -0.258149      0.063731      0.412936
O      14.99855      8.96762     10.37658        -0.477384      0.742331      0.166300
O       7.46980      1.77294      2.29099         0.134150     -0.522593      0.522717
O       7.42938      2.17322     14.69112        -0.262140     -0.145422     -0.521717
O       7.40843     13.41521      2.22896         1.498863     -0.125406      0.439556
O       7.51514     12.68605     14.38345        -0.093291      0.770945      0.564078
O       7.57143      1.60812      6.36928         0.214156     -0.331297      0.085084
O       7.48123     13.52620      6.42171         0.299480     -0.363058     -0.332465
O       7.63202      1.63364     10.51487        -1.219625      0.100198     -0.363570
O       7.51597     13.53159     10.47291         0.225413     -0.565989      0.114785
O       7.42399      5.95015      2.26918        -0.279187     -0.241464      0.316399
O       7.43317      5.14106     14.45226         0.045625      0.997773      0.069454
O       7.51342      6.04978      6.36430        -0.787123     -0.338485      0.116474
O       7.52988      5.88879     10.47493        -0.523265      0.162448      0.387603
O       7.46047      8.94652      2.11381        -0.343569      0.200906      0.847846
O       7.48797      9.71520     14.47405        -0.160746     -0.499392      0.089394
O       7.43795      8.99349      6.32767        -0.479535     -0.002665     -0.029237
O       7.47759      9.05772     10.46649        -0.217226      0.033891      0.136170
O      11.24480      2.17951      2.00537        -1.112377      0.065117      0.755791
O      11.20495      1.43399     14.41832         0.435655      0.568955      0.773230
O      11.23657     12.75244      2.20796        -0.951665      0.500174      0.319385
O      11.19971     13.64035     14.26328         0.136677     -0.711018      1.434264
O      11.28289      2.20389      6.36525        -0.438994     -0.300767     -0.249507
O      11.27976     12.61025      6.30021        -1.195572      0.652570      0.416155
O      11.31628      2.16010     10.53394        -0.487014     -0.576464     -0.118160
O      11.28776     12.79366     10.53465         0.165427      0.752464     -0.918139
O      11.20492      5.25253      2.06282         0.525776      0.742357      0.689430
O      11.22709      5.95913     14.48657         0.231016     -0.347222      0.505330
O      11.17615      5.20848      6.23426         0.728118      0.550786      0.179042
O      11.28308      5.27580     10.30281         0.237370      0.516866      0.687326
O      11.19915      9.66358      1.97642        -0.264351     -0.500229      0.820548
O      11.22003      8.86414     14.50729         0.094537      0.554476      0.416103
O      11.12209      9.81706      6.29040         0.658543     -0.850500      0.229891
O      11.17245      9.70088     10.44066         1.069985     -0.289496     -0.336621
O       1.46975      3.71198      2.16019         0.135654      0.403332      0.188212
O       2.30701      3.76353     14.56986        -0.565793     -0.735935     -0.022723
O       2.08518     14.98755      2.31281        -0.293851     -0.174578     -0.153773
O       1.51699      0.02174     14.50327         0.052424      0.689427      0.410999
O      13.45712      3.73422      2.18970        -0.300148      0.700940     -0.114897
O      12.61414      3.70508     14.44556         1.082551      0.588008      0.236999
O      12.68113     14.99508      2.18173         0.561774     -0.479008      0.001072
O      13.48704      0.01417     14.50171        -0.163414      0.001436      0.331976
O       1.42602      3.70716      6.32261         0.743870      0.788537      0.114765
O       2.34144     15.00152      6.29551        -0.750926     -0.036521      0.484948
O      13.47975      3.72881      6.32222        -0.507791      0.261479      0.464350
O      12.76602     14.94681      6.27163        -0.088687      0.198207      0.443276
O       1.60414      3.76414     10.35423         0.638303     -0.894891      0.199773
O       2.25306     14.91183     10.37239        -0.014914      1.650446      0.456778
O      13.48936      3.74705     10.38096        -0.243279      0.190851      0.310092
O      12.80650     14.97704     10.35875         0.489997      0.331200      0.223791
O       2.12782      7.57161      2.16332        -0.524167     -0.264998     -0.000239
O       1.33648      7.45825     14.48157         0.712591      0.044853      0.593577
O      12.81834      7.52265      2.15898        -0.147725     -0.378077      0.483817
O      13.51303      7.45981     14.38469        -0.132727      0.232221      0.212465
O       2.21871      7.46404      6.38215        -1.011581      0.922244     -0.054400
O      12.64430      7.43143      6.28669         0.335364      0.265790      0.227329
O       2.22029      7.48763     10.33985        -0.215645     -0.458461      0.399481
O      12.74272      7.47304     10.38444         0.662973      0.317476     -0.135710
O       1.71229     11.32598      2.42658        -0.426806     -0.370356     -0.342627
O       2.13312     11.26333     14.48331         0.247967     -0.611610      0.402704
O      13.31035     11.21928      2.33486        -0.256820      1.035299     -0.062120
O      12.59547     11.20310     14.44681         0.563781      1.014658      0.352844
O       1.46825     11.21879      6.33895        -0.031033     -0.259784     -0.170816
O      13.57565     11.10442      6.26021        -0.702491      0.967230      0.341921
O       1.59983     11.23002     10.48791        -0.065580     -0.023104      0.201335
O      13.46258     11.26446     10.42573        -0.307639     -0.661272      0.091296
O       5.69100      3.77821      2.43355         0.371086     -0.503097      0.455095
O       5.17504      3.72087     14.52912         0.079220     -0.126223      0.107339
O       5.32529     14.95958      2.15490         0.196677      1.444502      0.353869
O       5.93290      0.03932     14.53586         0.062562     -1.413117      0.532772
O       5.94748      3.80017      6.34360        -0.060950      0.314832      0.120626
O       5.26491     14.98625      6.24095         0.216309     -0.535267      0.911724
O       5.99161      3.78354     10.36671        -0.406992     -0.584152      0.298892
O       5.27277     15.00601     10.33184         0.362627      0.606438      0.509197
O       5.11363      7.49648      2.25635         1.089048      0.109173      0.259038
O       5.98197      7.44630     14.50090        -0.055619      0.220561      0.368765
O       5.27906      7.61264      6.37849         0.020643     -1.173951      0.434928
O       5.32838      7.54376     10.39113         0.014239     -1.476031     -0.069333
O       5.94593     11.28323      2.05787        -0.170844     -0.946168      0.650083
O       5.24488     11.18935     14.45248         0.249051      0.872535     -0.096486
O       6.02330     11.19789      6.38584        -0.366047      0.424639     -0.279980
O       5.95189     11.25077     10.64187        -0.301847      0.447187     -0.324365
O       9.10292      3.79976      2.25311        -0.176405     -1.138949      0.696157
O       9.57967      3.71214     14.59595         0.450397      1.014953      0.103122
O       9.57879      0.03714      2.14744         0.123438     -0.992782      0.415542
O       8.89560     15.00381     14.58917         0.648401     -1.120532      0.327924
O       9.06030      3.71041      6.35953        -0.087497     -0.173587     -0.059747
O       9.70923     14.91053      6.25709         0.073468      0.569343      0.429494
O       9.23336      3.80074     10.55432        -0.571211     -1.532481     -0.411818
O       9.65147     14.94953     10.48501         0.351334      1.643771     -0.357475
O       9.65205      7.45799      2.27293         0.058141     -0.005898      0.365179
O       8.89982      7.45696     14.44150         0.465650     -0.105454      0.880794
O       9.68421      7.46494      6.22264         0.158233      0.090095      0.164575
O       9.71374      7.50927     10.39391         0.219007     -1.260323      0.595491
O       8.95614     11.18876      2.12562         0.490678      0.378991      0.490895
O       9.74481     11.18365     14.40885        -0.181531      0.486876      0.881881
O       8.81491     11.21683      6.26295         0.882787      0.493029      0.511637
O       9.11119     11.21400     10.34336        -0.152987      0.411973      0.627273
