  # total energy = -7858.70716682 
CRSYTAL
PRIMVEC
    15.010000000000000    0.0000000000000000    0.0000000000000000
     0.0000000000000000   15.010000000000000    0.0000000000000000
     0.0000000000000000    0.0000000000000000    16.400000000000000
PRESSURE
15.7622 16.0885 6.01789 -0.102115 -0.006046 -0.131717
PRIMCOORD
320 1
Pb       4.00013      3.68533      4.42673        -0.530380      0.875570     -1.518699
Pb       3.84186      3.79687      0.17196        -0.924962     -0.207295      0.293998
Pb       3.64085      0.16821      4.16231         0.724169     -0.541820     -0.276756
Pb       3.74713      0.01478     16.35054        -0.027809      0.754003      0.365562
Pb      14.96494      3.63605      4.05578         0.210677      0.237731      0.018721
Pb       0.05616      3.70238     16.36424        -0.012376      0.451404     -0.019175
Pb       0.02616      0.04969      4.20433        -0.439963     -0.561317     -1.095335
Pb      14.89113      0.01419      0.04294         0.203558      0.061572      0.428680
Pb       3.82351      3.65246      8.35062        -0.050296      0.016197     -0.706438
Pb       3.82076     14.81698      8.34219         0.397761      0.822277     -0.441013
Pb       0.14376      3.79203      8.33746         0.054268     -0.099966      0.029015
Pb       0.00621     14.87069      8.20298         0.066282      0.883462      0.734000
Pb       3.78316      3.75520     12.22023        -0.112984      0.017203      0.001346
Pb       3.73200      0.01241     12.53502         0.786633     -0.655043     -0.990711
Pb       0.08388      3.68652     12.34952        -0.352645      0.209650     -0.818496
Pb       0.03667      0.03062     12.31293         0.076407     -0.416844     -0.145130
Pb       3.48974      7.55117      4.11086         0.792148     -0.558660     -0.211347
Pb       3.74332      7.38265      0.31091        -0.085766      0.297071     -1.351840
Pb      14.86994      7.48009      4.12766         0.037919      0.098021     -0.113716
Pb      14.93598      7.55853      0.07582        -0.157603     -0.577943     -0.026633
Pb       3.69251      7.53581      8.03845         0.138449     -0.176222      1.042475
Pb      15.00367      7.49396      8.26100        -0.418194      0.227041     -0.523485
Pb       3.76082      7.59981     12.30179         0.158760      0.024752      0.207573
Pb       0.09173      7.29796     12.35485        -0.582453      1.202906     -0.176218
Pb       3.51103     11.29324      4.22838         0.543273      0.097351     -1.006481
Pb       3.67666     11.03188     16.31832         0.736691      0.520666      0.221676
Pb      14.94647     11.25884      4.11798         0.035813      0.035300     -0.614243
Pb      14.89675     11.38230      0.05395        -0.327293     -0.470093      0.000785
Pb       3.66480     11.08977      8.30298        -0.165797      0.152673     -0.064059
Pb      14.98173     11.14002      8.23257        -0.316908     -0.335414      0.103445
Pb       3.73634     11.32587     12.38082        -0.547656      0.108505     -0.394001
Pb       0.00543     11.29505     12.33602        -0.069163      0.097519      0.221715
Pb       7.55947      3.67177      4.21610        -0.521672     -0.038313     -0.439341
Pb       7.59084      3.85287     16.38207        -0.776918     -0.487385      0.193789
Pb       7.48311     14.91446      4.28861        -0.426946      0.180105     -0.576546
Pb       7.32518      0.02067      0.01133         1.284471      0.292035      0.254658
Pb       7.55445      3.65216      8.25278        -0.227961      0.180157     -0.214479
Pb       7.54310     14.95953      8.32315        -0.271049      0.264818     -0.423049
Pb       7.49003      3.72636     12.24417         0.410621      0.253842      0.125339
Pb       7.62341     14.80818     12.47451        -1.135061      1.248524      0.005561
Pb       7.24181      7.54852      4.04089         0.899490      0.093722      0.609122
Pb       7.52047      7.50379      0.10897        -0.783748      0.190273     -0.463933
Pb       7.48204      7.50745      8.41716        -0.152946     -0.261536     -0.909815
Pb       7.60894      7.40422     12.56317        -1.042148     -0.402775     -0.718253
Pb       7.42637     11.38735      4.11722         0.065578     -0.680797     -0.396807
Pb       7.52577     11.28831      0.13116         0.503767     -0.460352     -0.685333
Pb       7.39751     11.18283      8.32096         0.218225     -0.096845     -0.962737
Pb       7.54209     11.14677     12.40413        -0.267628     -0.176719      0.387674
Pb      11.12800      3.75269      4.17535         0.551739     -0.579016     -0.709171
Pb      11.30594      3.82296     16.38292        -0.208974     -0.787133      0.551851
Pb      11.40090      0.02983      4.27151        -0.445862     -0.236152     -0.497558
Pb      11.01673     14.95041      0.17698         0.896569      0.146756     -0.791878
Pb      11.43746      3.80834      8.13166        -0.854398     -0.607401      0.384233
Pb      11.30593     14.86298      8.29317        -0.272681      0.311857     -0.567512
Pb      11.35965      3.72203     12.21557        -0.121175      0.120051      0.327089
Pb      11.29770      0.16289     12.30805         0.096922     -0.569869     -0.226495
Pb      11.17458      7.45401      4.23139         0.090706     -0.104614     -0.804971
Pb      11.08379      7.48311      0.17315         0.911265      0.133393     -0.450017
Pb      11.05406      7.45655      8.20513         0.891178      0.231604     -0.388902
Pb      11.35499      7.31684     12.30597        -0.222148      1.002834     -0.072049
Pb      11.28485     11.31115      4.19426        -0.618827     -0.289700     -0.111612
Pb      11.22463     11.11410      0.10239        -0.308346      0.883012     -0.919849
Pb      11.01222     11.13078      8.34158         0.867756      0.019935     -0.488887
Pb      11.18123     11.31223     12.26613         1.095766     -0.084835     -0.210857
Ti       1.81583      1.85715      1.97934         0.933222      0.052371      0.260940
Ti       1.84272      1.84841     14.23462         0.330857      0.949667      1.212607
Ti       1.84404     13.16090      1.97529        -0.392893      0.435813      1.287342
Ti       1.88718     13.09918     14.49436        -0.297434      0.315552     -1.605487
Ti      13.07390      1.93796      2.03616        -0.354722     -0.851275     -0.146773
Ti      13.12144      1.85535     14.38290        -0.347009      1.346671     -0.224196
Ti      12.99502     13.12911      2.09915         0.991027      0.717804     -0.432287
Ti      13.08230     13.20653     14.38353        -0.566739     -1.329657     -0.645040
Ti       1.85684      1.90186      6.17184         1.140524     -0.255777      0.695145
Ti       1.79453     13.17116      6.16317         1.295943     -0.219445      0.106991
Ti      13.19706      1.90283      6.24681        -1.203963     -1.766877     -0.700488
Ti      13.11104     13.01043      6.21994        -1.098976      1.475713     -0.318777
Ti       2.02936      1.79468     10.21343        -0.979906      1.639610     -0.736926
Ti       1.92925     13.09075     10.20507         0.159702     -0.226772      1.348757
Ti      13.21969      1.86687     10.18109         0.390938      0.715447     -0.183136
Ti      13.23511     13.20832     10.27480        -0.800060     -1.897936      0.204021
Ti       1.77661      5.59835      2.10370         0.446730      0.002820     -1.039655
Ti       1.91495      5.56751     14.32340        -0.677218     -0.024890      0.832753
Ti      13.04703      5.62148      1.96048         0.828717      1.022017      0.435635
Ti      13.15042      5.63193     14.28377         0.518108     -0.205118      0.755472
Ti       1.85066      5.58124      6.15218        -0.010014      0.373157      0.580025
Ti      13.17111      5.53684      6.10136         0.065305      1.949030      0.638846
Ti       1.90724      5.66942     10.19175        -0.726830     -1.481481     -0.360662
Ti      13.15851      5.66636     10.17495         0.209189      0.291768     -0.619848
Ti       1.88414      9.45931      2.00022        -0.306652     -0.568776     -0.217787
Ti       1.72779      9.29851     14.47154         0.746507      0.117152     -1.346288
Ti      13.12243      9.36659      1.95130         0.253393     -0.361100      1.305721
Ti      13.08818      9.42730     14.23125         0.152931     -0.201636     -0.327728
Ti       1.80305      9.35418      6.18365        -1.048583      0.305303     -0.225527
Ti      12.96827      9.32134      6.05494         0.840188     -0.008354      1.184482
Ti       1.78980      9.32400     10.39823         0.333048      1.049004     -0.130835
Ti      13.10808      9.42542     10.27877        -0.325118     -1.061137     -0.525933
Ti       5.67029      1.90616      2.14505        -1.016941      0.346242     -0.022263
Ti       5.62170      1.92575     14.43694        -0.461922     -1.374791     -1.044662
Ti       5.54283     13.16676      1.87291         0.812748     -0.190033      1.236622
Ti       5.66527     13.05059     14.37339        -0.382787      1.499000     -1.003017
Ti       5.67338      1.88051      6.28364        -0.132137     -0.849772      0.138151
Ti       5.48380     13.06050      6.14711         1.717802      1.250770      0.501026
Ti       5.79411      1.87744     10.37652        -1.924348     -1.730465     -0.241528
Ti       5.71752     13.04924     10.20792        -1.806775      2.536040      0.817371
Ti       5.52411      5.67906      2.23665        -0.271156     -1.548562      0.452617
Ti       5.52675      5.56465     14.26078         0.688119      0.682097     -0.033568
Ti       5.62201      5.77853      6.25167         0.907657     -1.363484     -0.768754
Ti       5.58424      5.67679     10.20045         1.281704     -0.335342     -0.117564
Ti       5.64440      9.43605      1.96223        -0.640720     -0.620427      0.040668
Ti       5.57003      9.28681     14.33684         0.520385     -0.519152      0.274060
Ti       5.51858      9.46069      6.02796         1.293062     -0.585166     -0.124743
Ti       5.59574      9.43235     10.32312        -1.037874     -1.217602     -0.367934
Ti       9.34627      1.83745      1.94587         0.746790      0.319546      0.910421
Ti       9.36581      1.89021     14.35930        -0.037698     -1.315120      0.754925
Ti       9.33499     13.10568      2.13051        -0.213563      0.168703     -0.671784
Ti       9.43366     13.08222     14.29255         0.176741     -0.117409      1.506511
Ti       9.47177      1.74013      6.15832        -0.538387      1.254475     -0.050725
Ti       9.24257     13.05820      6.25653         0.990006     -0.340014     -0.515599
Ti       9.50433      1.90410     10.21404        -1.007159     -0.619721     -1.415736
Ti       9.35923     13.11811     10.35113         1.413317      0.823458     -1.083043
Ti       9.28368      5.57974      2.07144         0.343702     -0.084625      0.612149
Ti       9.42147      5.57409     14.45329        -0.141383      1.848740     -1.836131
Ti       9.32511      5.51436      6.13188        -0.929549      1.249911     -0.063187
Ti       9.41317      5.60608     10.34641        -1.670618     -0.433884     -0.163287
Ti       9.39142      9.32254      2.04757        -0.798888      0.417091      0.586573
Ti       9.39114      9.27812     14.29976        -0.553405      0.547270      0.821022
Ti       9.20782      9.32457      6.09511        -0.012173      0.128839     -0.481405
Ti       9.31523      9.30780     10.33028         1.096987     -0.247568     -0.027177
O       1.72321      1.72828      0.11907         0.091192      0.283922      0.653034
O       1.86666      1.94896     12.39689         0.182658     -0.113896     -0.070852
O       1.87190     13.27304      0.13939         0.039214     -0.465932      0.054237
O       1.89713     13.09383     12.48601        -0.039779      0.520474      1.378493
O      13.19455      1.83813      0.14070        -0.052203      0.624513      0.309376
O      13.15864      1.94213     12.42608        -0.098364     -0.344281      0.589112
O      12.90466     12.93678      0.18668         0.344848      0.787939      0.345519
O      13.16170     13.08920     12.50057         0.170333      0.820465      0.131413
O       1.93417      1.89348      4.28398        -0.792057     -0.114483      0.585929
O       1.84963     13.23639      4.31442         0.148143     -0.724546      0.528285
O      12.94743      1.82260      4.25864         1.091327      0.262420      0.449508
O      13.12687     13.17165      4.32679         0.118589     -0.595647      0.501228
O       2.00727      1.89634      8.28994        -0.458119     -0.244081      0.671030
O       1.77533     13.16571      8.37339         0.097598     -0.425428      0.108062
O      13.06103      1.78161      8.23783         0.262976      0.361549      1.445304
O      13.32534     13.03814      8.36860        -0.674200      0.472191      0.305411
O       1.97796      5.60698      0.15097        -0.527532      0.160688      1.019597
O       1.87420      5.63803     12.38687         0.235310     -0.253167      0.565564
O      13.12057      5.69481      0.12192        -0.054281     -0.347041     -0.525130
O      13.21337      5.51971     12.39766        -0.385214      0.061796      0.278028
O       1.69985      5.72063      4.35504        -0.203271     -0.122831     -1.251502
O      13.08064      5.59267      4.28444         0.412235      0.081211     -0.445322
O       1.76330      5.67040      8.27530         0.231524     -0.155456      0.966642
O      13.17625      5.63551      8.21441        -0.398530      0.010767      1.850162
O       1.91506      9.43245      0.07490        -0.781539      0.183506      0.990270
O       1.78709      9.32377     12.50649         0.033030     -0.263662      0.508756
O      13.15298      9.38863      0.13008         0.215378      0.136393     -0.287532
O      13.05712      9.24884     12.38517         0.226355      1.094425      1.316933
O       1.95102      9.38435      4.29530        -0.273071      0.064280     -0.175491
O      13.01832      9.28104      4.20682         0.148415      0.798130      0.352206
O       1.85923      9.33242      8.42180         0.298656      0.448935      0.246125
O      13.02457      9.36683      8.38217         0.284826      0.251586      0.055245
O       5.51561      2.01351      0.25270         0.512279     -0.494534     -0.014573
O       5.70346      1.84991     12.42477        -0.414928      0.495281      1.271075
O       5.73096     13.18225      0.02691        -0.368122     -0.506709      0.726946
O       5.49997     13.25694     12.44693         0.417588     -0.457973      0.700727
O       5.63827      1.76142      4.29678         0.113221     -0.055256      0.909262
O       5.65404     13.10220      4.33149        -0.179270      0.160966     -0.364833
O       5.60062      1.88863      8.32377         0.052664      0.240035      0.400713
O       5.67258     13.16458      8.33832         0.174490     -0.727409      1.067270
O       5.44131      5.64028      0.35522         0.106466     -0.686321     -0.341594
O       5.51831      5.64171     12.42909        -0.761594     -0.716488      0.436290
O       5.73791      5.73464      4.33278        -0.518584      0.251975      0.249813
O       5.64787      5.65568      8.24943         0.301138     -0.133656      1.823602
O       5.74168      9.14687      0.06848        -0.758959      1.330533      0.304787
O       5.67810      9.27231     12.41815        -0.099185      0.514141      0.695600
O       5.52447      9.36305      4.16118        -0.149855      0.351383      0.498567
O       5.46011      9.47554      8.33193         0.528918      0.059507      1.528929
O       9.40579      1.92417      0.13008        -0.347899     -0.148510     -0.360854
O       9.27185      1.87519     12.54978         0.453675      0.060286      0.456740
O       9.58315     13.13294      0.14319        -0.946084     -0.670805      0.502449
O       9.28171     13.03768     12.36211         0.679844      0.237509      0.777993
O       9.47506      1.90436      4.23544        -0.445921     -0.349097      1.110313
O       9.22448     12.95428      4.29053         0.192350      0.620739      0.385687
O       9.56046      1.92150      8.33952        -0.495756     -0.319843      0.516409
O       9.41219     13.13705      8.38351        -0.384155      0.109833      0.700831
O       9.30889      5.79740      0.09708         0.368781     -0.909579      0.565867
O       9.52639      5.76403     12.44993        -0.728988     -0.833731      0.707734
O       9.44579      5.51720      4.20180        -0.663320      0.093335      0.844598
O       9.20294      5.68053      8.41966         0.527274     -0.475011      0.215628
O       9.30507      9.20492      0.13639        -0.093342      0.184853      0.283251
O       9.21034      9.16311     12.34142         0.931999      1.125892      1.040912
O       9.24555      9.40927      4.20992         0.728361      0.194862      0.632349
O       9.30104      9.26085      8.29097         0.279741      0.467274      0.503490
O       3.70152      2.10390      2.20242        -0.565265     -0.360164      0.217863
O       3.67960      1.51476     14.52090         0.986091      0.269608      0.035525
O       3.79514     12.86337      2.18236        -0.905998      0.498280     -0.105909
O       3.74306     13.53532     14.58309        -0.322841     -0.742528     -0.228304
O      14.93304      1.52229      2.24795         0.009643      0.615586      0.270857
O      14.98782      2.30652     14.42738        -0.232936     -0.649916      0.026962
O      14.95096     13.32119      2.27899         0.436682     -0.132819     -0.490731
O      14.90824     12.89045     14.72005         1.263523      0.326156     -0.417072
O       3.66251      2.38281      6.28381         1.152349     -1.464642      0.500565
O       3.76330     12.71743      6.48277        -1.443179     -0.180754     -0.336911
O      14.99234      1.38564      6.36397         0.554251      0.825230     -0.477788
O       0.02079     13.54823      6.34787        -0.676926     -0.582962     -0.509645
O       3.80912      2.30629     10.42154         0.120065     -0.713644     -0.024512
O       3.77181     12.73558     10.34239         0.115753      0.589130     -0.104415
O       0.03008      1.54972     10.40762         0.017424      0.435591     -0.148752
O       0.06510     13.44988     10.50666        -0.166800     -0.199131     -0.015725
O       3.58012      5.39331      2.59189         0.940215      0.551483     -1.009794
O       3.67884      5.96584     14.49851         0.543127      0.138984     -0.065977
O      14.99971      6.11309      2.08133        -0.519717     -0.945668      0.758308
O       0.00575      5.23086     14.53978        -0.516152      0.241152     -0.477660
O       3.73922      5.32811      6.36590        -0.447479      0.486225     -0.213020
O      14.96249      6.00913      6.36012        -0.301743     -0.280853     -0.447012
O       3.73759      5.32325     10.20544         0.462589      0.195222      0.998866
O       0.01258      5.92907     10.32247        -0.341404     -0.365866      0.035554
O       3.73929      9.72077      2.03938         0.251434     -0.313866      0.454383
O       3.67988      9.01020     14.56740         0.630493      0.669973     -0.344941
O       0.04303      9.22495      2.29406        -1.118041      0.174927     -0.229370
O      14.94779      9.89722     14.54191        -0.609189     -0.578020      0.134028
O       3.74947      9.78476      6.31407        -1.313178     -0.326379      0.050209
O      14.98089      8.91939      6.29681        -0.592210      1.139442     -0.178047
O       3.73957      9.67581     10.64676         0.250726     -0.333020     -0.758157
O      14.98419      9.13121     10.45445         0.143840     -0.119582     -0.030977
O       7.53400      1.91579      2.22165        -1.010551     -0.870902      0.155701
O       7.38097      2.07238     14.74158         1.932595      0.752543     -0.311116
O       7.48966     13.35743      2.24301        -0.378305     -0.485909     -0.029274
O       7.50862     12.97063     14.34896         0.145721     -1.074876      0.223975
O       7.50669      1.47772      6.43684         0.208198      0.664434     -0.518134
O       7.46407     13.47849      6.46662        -0.436838      0.332283     -0.550016
O       7.56949      1.70168     10.42260         0.306209     -0.279408     -0.242143
O       7.53045     13.50125     10.45266        -0.100528     -0.483365     -0.308401
O       7.40862      5.86156      2.19794         0.978045     -0.076387     -0.101282
O       7.42396      5.27153     14.32938         0.118174      0.278749      0.697031
O       7.50071      6.18729      6.37865         0.911936     -1.169021     -0.437507
O       7.42837      5.88040     10.73662         1.320643     -0.707201     -1.409740
O       7.46703      9.17330      2.19718         0.394894     -0.619719     -0.308230
O       7.50638      9.63373     14.54861        -0.331385     -0.065573     -0.588772
O       7.38305      8.98317      6.25542         0.765660      0.109521      0.343999
O       7.46540      9.28519     10.32321         0.260137     -0.341095      0.109633
O      11.21580      2.17145      2.12322         0.721741     -0.001891      0.085329
O      11.19684      1.61449     14.56012        -0.113140      0.109755     -0.470311
O      11.18243     12.93746      2.49760        -0.101153     -0.147003     -0.527121
O      11.22072     13.54665     14.38623        -0.042829     -0.190962     -0.204652
O      11.24776      2.20439      6.32419         0.363864      0.090520     -0.124617
O      11.16695     12.68938      6.36045         1.183915      0.325471     -0.142811
O      11.30528      2.10718     10.47770         1.697080      0.158006      0.226311
O      11.33684     13.00625     10.52518        -0.811689     -0.235462     -0.292664
O      11.26545      5.30675      2.13839        -1.308694      0.388762     -0.028828
O      11.28073      6.03038     14.41340        -0.515237     -0.769523      0.799699
O      11.20750      5.22534      6.30742        -0.073104      0.440442      0.058196
O      11.24870      5.41035     10.44324         0.765718     -0.270867     -0.276346
O      11.24142      9.53624      1.99652        -0.025818      0.351910      0.821392
O      11.24424      9.06284     14.57586        -0.118236     -0.153175     -0.334983
O      11.17887      9.84607      6.29154        -0.249159     -0.559879     -0.042115
O      11.23865      9.63087     10.42112        -1.220729      0.029904      0.124172
O       1.41789      3.73474      2.16832         0.246949      0.018400      0.130758
O       2.18162      3.74411     14.59429        -0.015046      0.087990     -0.356350
O       1.97528     14.99484      2.41305         0.459284     -0.037757     -0.761449
O       1.60111      0.05668     14.42940        -0.837121     -1.241497      0.162532
O      13.41619      3.82548      2.28964         0.163722     -1.398047     -0.448045
O      12.66027      3.71830     14.55224         0.998235      0.787679     -0.465809
O      12.76533     14.96643      2.19938         0.316533      1.159494     -0.147193
O      13.41082      0.06710     14.57113         0.047685     -0.625383     -0.310584
O       1.45627      3.77400      6.28469        -0.125762     -0.880664     -0.018059
O       2.44799     14.94047      6.36621        -1.553155      0.910573     -0.513330
O      13.42829      3.71829      6.35472         0.213081     -0.127676     -0.073032
O      12.72142     14.95730      6.29387         0.360266      0.085661      0.404410
O       1.65140      3.71567     10.31394        -0.369201      1.000538      0.254547
O       2.21629      0.05042     10.46425         0.021623     -2.179997      0.099474
O      13.50023      3.76927     10.35656        -0.809529     -0.412935     -0.180071
O      12.92392      0.01059     10.38289        -0.039792      0.323029      0.204256
O       2.10838      7.58807      2.08476         0.130762     -0.363269      0.731712
O       1.28950      7.53066     14.59274         1.145764     -1.017385     -0.711085
O      12.78310      7.48853      2.19589         0.612686      0.768893     -0.033438
O      13.55875      7.47214     14.30361        -0.673784      0.552946      0.699471
O       2.11950      7.54481      6.34138         0.617732     -0.805515     -0.125176
O      12.70021      7.52405      6.21717         0.041079     -0.621003      0.312529
O       2.12684      7.49776     10.39563         0.386419     -0.042461      0.267187
O      12.81947      7.49840     10.46398         0.567916     -0.899431     -0.691336
O       1.76289     11.31612      2.39110        -0.610420      0.196539     -0.270698
O       2.13866     11.25730     14.56569        -0.120489      0.797910     -0.147452
O      13.28916     11.29578      2.27858        -0.203856     -1.726066      0.163472
O      12.66909     11.33092     14.45153         0.431144     -1.234515     -0.041278
O       1.46676     11.20526      6.31846         0.399721      1.232160      0.030314
O      13.56445     11.25367      6.32382        -0.324487     -0.909854     -0.361779
O       1.62828     11.25360     10.67526         0.093016      0.230101     -1.454333
O      13.37555     11.23333     10.49347         0.128725      1.184849     -0.006689
O       5.73903      3.77225      2.70494        -0.145657      0.195223     -1.633173
O       5.17178      3.68798     14.72041         0.645536      1.475342     -1.239026
O       5.52308      0.02037      2.16930        -0.244782     -0.332800      0.025715
O       5.99926     14.99174     14.61485        -1.585942      0.842503     -0.622798
O       5.97614      3.82594      6.21680        -0.063650     -1.071166      0.310299
O       5.29140      0.00055      6.37684        -0.139365      0.015471     -0.221074
O       5.98904      3.76104     10.45874        -0.883207      0.634980     -0.354007
O       5.27899      0.00911     10.41520         0.718962     -0.140329     -0.230373
O       5.28000      7.53557      2.22117         0.041711     -0.169712      0.600704
O       5.86025      7.43387     14.39447         0.063325     -0.089067      0.468047
O       5.23380      7.55742      6.30479        -0.297417      1.021324     -0.140705
O       5.39698      7.49102     10.41029        -0.241500      0.906808     -0.315918
O       5.91135     11.22694      2.02955        -0.065159      1.467435     -0.098400
O       5.32906     11.27336     14.44699         0.033232     -1.444216      0.234785
O       6.02897     11.23813      6.30698        -0.286396      0.237983      0.067480
O       5.97282     11.29632     10.63444        -0.445864     -0.636561     -0.526431
O       9.14346      3.74749      2.16815         0.143567      1.276676     -0.128886
O       9.48771      3.80668     14.74585         0.430107     -1.445663     -0.609902
O       9.51639     14.98793      2.07315         0.176111      0.456443      0.662744
O       9.06965     14.91551     14.56161        -0.013122      1.725302     -0.203972
O       8.98076      3.68639      6.43040         0.492931      0.864464     -0.738943
O       9.68127     14.96590      6.33915         0.102159     -0.393111     -0.001157
O       9.29871      3.67073     10.60582        -0.804865      2.445013     -0.052598
O       9.68580      0.12947     10.51658        -0.283402     -2.635063      0.066517
O       9.61658      7.46190      2.29764        -0.293012     -0.214106     -0.358658
O       8.98028      7.44891     14.54538         0.362781      0.478691     -0.117735
O       9.78925      7.48281      6.14406        -0.665508      0.210371      0.742715
O       9.61878      7.47026     10.30150        -0.170043      0.607471      0.298510
O       9.11266     11.21584      2.05854         0.160115     -0.039146      0.131952
O       9.61528     11.19013     14.57079        -0.007824      0.191823     -0.617715
O       8.77489     11.28116      6.35479         0.946796     -1.535050      0.187487
O       9.21596     11.29189     10.40587        -0.260303     -0.798562      0.054141
