  # total energy = -7876.75745388 
CRSYTAL
PRIMVEC
    15.2000000000000000    0.0000000000000000    0.0000000000000000
     0.0000000000000000   15.2000000000000000    0.0000000000000000
     0.0000000000000000    0.0000000000000000    17.000000000000000
PRESSURE
7.68316 8.03021 4.4031 0.06423 -0.039066 0.092298
PRIMCOORD
320 1
Pb       3.69001      3.90466      4.27658         0.079163     -0.221350      0.212780
Pb       3.87301      3.93596      0.04392        -0.164645     -0.770674     -0.202858
Pb       3.69508      0.13376      4.38576        -0.263856     -0.630825     -1.199759
Pb       3.98270     15.16786      0.04509        -1.127348     -0.152927     -0.076495
Pb      15.19253      4.12624      4.31841        -0.152683     -1.539569      0.224616
Pb      15.14010      3.72531      0.00180        -0.175874     -0.322312     -0.625919
Pb       0.08452      0.18431      4.20997        -0.335141     -0.584601      0.270789
Pb       0.02724     15.13517     16.92605         0.244723      0.484344     -0.170743
Pb       4.04580      3.56830      8.47747        -0.678477      0.880937      0.290015
Pb       3.80882     15.08144      8.57835        -0.263769      0.578543     -0.121055
Pb      15.16569      3.76678      8.45177         0.582080      0.031568      0.006948
Pb       0.00699     15.11134      8.70094        -0.376195     -0.453860     -0.511972
Pb       3.76675      3.80605     12.76844         0.014360     -0.350087     -0.556935
Pb       3.75128     15.09478     12.80513        -0.012708      0.741895     -0.527748
Pb       0.09066      3.61480     12.75621        -0.311109      0.602069      0.073571
Pb       0.01994     15.14538     12.76766         0.236197      0.279487     -0.193818
Pb       3.74259      7.53149      4.27589         0.378144      0.786288      0.192848
Pb       3.90385      7.64577      0.24299        -0.556088      0.294329     -0.743095
Pb      15.15615      7.58235      4.11042        -0.545394      0.755759      0.969176
Pb       0.09055      7.56488     16.89130        -0.495106      0.724830      0.394624
Pb       3.80024      7.57123      8.40574         0.258334      0.015106      0.244698
Pb      15.03239      7.49662      8.44631         0.425070      0.513129     -0.029163
Pb       3.67645      7.51585     12.69748         0.599187      0.053427      0.222763
Pb      15.10199      7.49544     12.67837         0.099825     -0.160901     -0.241375
Pb       3.56375     11.53752      4.27868         0.432552     -0.764151      0.096172
Pb       3.95219     11.37566      0.16969        -0.569741      0.219145     -0.872632
Pb      14.99233     11.51784      4.26664         0.732508     -0.188767      0.292406
Pb       0.05614     11.45629     16.98040         0.078778     -0.622720     -0.200199
Pb       3.85102     11.42163      8.46857        -0.562011     -0.362386     -0.360687
Pb      15.02903     11.25210      8.59655         0.517747      0.874234     -0.543848
Pb       3.59754     11.20652     12.89331         0.439303      0.311245     -0.493307
Pb      15.11577     11.26774     12.65404         0.610194      0.353190      0.112910
Pb       7.48133      3.66650      4.11175         0.824394      0.675386      0.492702
Pb       7.62017      3.84448      0.02205        -0.064969     -0.338657     -0.766010
Pb       7.51348     15.17129      4.29447         0.348897     -0.078036     -0.474313
Pb       7.59603     15.08785      0.06769         0.134407      0.307641     -0.081773
Pb       7.80277      3.78983      8.24695        -0.959202      0.141448      0.846156
Pb       7.55759     15.11565      8.40837         0.102807      0.682199     -0.360703
Pb       7.45161      3.75100     12.69887         0.767493      0.501385      0.396905
Pb       7.64191      0.19354     12.67316        -0.653687     -1.192178      0.616292
Pb       7.69094      7.48664      4.41504        -0.338447      0.227506     -0.604999
Pb       7.48021      7.64208     16.93864         0.628573     -0.166296     -0.042546
Pb       7.64098      7.63979      8.42472        -0.535874     -0.531998      0.380739
Pb       7.58204      7.60557     12.81051        -0.157338     -0.232289     -0.705969
Pb       7.52437     11.21349      4.15244        -0.310290      0.461774      0.843112
Pb       7.74772     11.44929     16.99385        -0.486391     -0.155360     -0.245320
Pb       7.46768     11.47409      8.35120         0.734331     -0.511715      0.631038
Pb       7.50173     11.28309     12.70251        -0.079812      0.379378     -0.459287
Pb      11.41322      3.82071      4.08639        -0.014844      0.294799      0.430385
Pb      11.44810      3.79432      0.03472         0.171825     -0.363662     -0.677893
Pb      11.45870     15.16838      4.27120        -0.518845      0.037162     -0.582639
Pb      11.41540     15.01833     16.93616        -0.027210      0.530447      0.203638
Pb      11.42579      3.69451      8.43705        -0.083896      0.570057      0.386050
Pb      11.28395     15.19054      8.49513         0.292185     -0.792506      0.137100
Pb      11.35629      3.76446     12.77954         0.150017      0.408697     -0.735609
Pb      11.38298      0.07040     12.78988        -0.070839     -0.016752     -0.650695
Pb      11.51608      7.58944      4.12310        -0.405382      0.012325      0.098138
Pb      11.27364      7.50289     16.90434         0.211284      0.702367      0.711922
Pb      11.35792      7.57403      8.33428         0.310857     -0.201675      0.453596
Pb      11.26744      7.49174     12.58686         0.706361      0.179751      0.842917
Pb      11.45172     11.33196      4.22898        -0.845262      0.292943     -0.156942
Pb      11.46168     11.42984     16.89955        -0.675739     -0.045920      0.371330
Pb      11.37734     11.44589      8.65061        -0.274988      0.473005     -0.687787
Pb      11.34259     11.26344     12.82062        -0.330522      0.108634     -1.280627
Ti       1.91235      1.99585      2.32613        -0.175377     -0.838021     -1.373581
Ti       1.97758      1.91597     15.15525        -0.920465     -1.719030     -0.917994
Ti       1.86330     13.32753      2.21345         0.119648      0.541418      1.301112
Ti       1.87377     13.20552     14.88278         0.774113      0.779305      1.069295
Ti      13.32713      1.85424      2.23945        -0.825185      1.126802      0.223514
Ti      13.25105      1.87677     14.92135         0.924265      0.492637      1.467626
Ti      13.30697     13.34104      2.22049        -1.098973      0.142385     -0.767012
Ti      13.29330     13.23433     14.88286         0.145402      1.254863      1.211371
Ti       1.86421      1.85382      6.55606        -0.372616      1.096628      0.314164
Ti       1.78761     13.27896      6.60573        -0.388020     -0.507032      1.368538
Ti      13.26554      1.82933      6.48276         0.333826      0.724484      0.632606
Ti      13.27961     13.40552      6.45876        -0.527982     -0.930757      0.801348
Ti       1.84796      1.96931     10.61024         1.069550     -0.883963      0.618690
Ti       1.94495     13.24314     10.78403        -1.013981      0.501636      0.815186
Ti      13.27424      1.89292     10.59081        -0.505529      0.382532      2.070511
Ti      13.23483     13.37661     10.83941         0.028373     -0.227212     -1.520736
Ti       1.89079      5.75688      2.22074        -0.203037     -0.122479      0.402978
Ti       1.92155      5.63900     14.99900        -0.232296      0.668082      0.174486
Ti      13.33923      5.71974      2.06669        -1.381223      0.488316      2.481065
Ti      13.33291      5.79427     14.94752         0.058966     -2.290052     -0.273333
Ti       1.95925      5.74093      6.53010        -0.082805     -1.114862      0.173614
Ti      13.35382      5.66444      6.51128        -1.392476      0.370380      0.480564
Ti       1.98806      5.73039     10.60284        -0.507974     -0.876189      0.301003
Ti      13.35662      5.63508     10.66414        -0.292153      0.104804      0.359269
Ti       1.75519      9.51941      2.39436         1.069278      0.989341     -0.841657
Ti       1.89116      9.40658     15.04617        -0.895480      2.141998     -0.551720
Ti      13.21774      9.58587      2.17310        -0.394527     -0.831542     -0.663447
Ti      13.20681      9.44982     14.96421         0.685662      0.605975      1.240297
Ti       1.75744      9.45589      6.50854         0.365841      1.509425     -0.452963
Ti      13.17860      9.61702      6.50475         0.953875     -0.772937      0.498144
Ti       1.89268      9.43986     10.67368        -0.076703      0.751089      1.216919
Ti      13.27488      9.50358     10.68696        -0.726091     -1.329960      0.849459
Ti       5.71524      1.86981      2.29115        -0.673872     -0.749137     -0.245888
Ti       5.72203      1.88451     15.05832         0.450267      0.030846     -1.069868
Ti       5.67395     13.28445      2.30230        -0.804596      0.307700      0.127391
Ti       5.64797     13.28528     14.94268        -0.249305      0.127454      1.935532
Ti       5.61321      1.84564      6.34662         2.022606      0.444119      1.804396
Ti       5.58845     13.32187      6.37329         0.500244     -0.396745     -0.527133
Ti       5.72841      1.93342     10.70986        -1.538416     -0.953152     -0.476161
Ti       5.67473     13.35711     10.64228         0.419826     -0.953988      1.354163
Ti       5.65004      5.67743      2.18419         0.326209      0.567547      1.122020
Ti       5.71111      5.68165     14.86614        -0.255494     -0.090505      0.100271
Ti       5.72795      5.61551      6.46015         0.121351      0.646335     -0.480525
Ti       5.77940      5.73523     10.70459        -0.246661     -0.215734     -0.739905
Ti       5.62830      9.45055      2.29330        -0.815980      0.421114      1.314528
Ti       5.64146      9.48205     14.97250        -0.060369      0.911617     -0.067383
Ti       5.57601      9.40957      6.50102        -0.096600      0.229718     -0.627180
Ti       5.62640      9.46851     10.71771         0.916768     -0.189795      0.149483
Ti       9.52706      1.90507      2.15738         0.653757     -1.117172      0.345475
Ti       9.47156      1.89532     15.02171        -0.154146      0.345323      0.310486
Ti       9.40947     13.21398      2.29966         1.221346      1.297112      0.648132
Ti       9.39436     13.38108     14.74684         0.813582     -1.031369      2.008174
Ti       9.49011      1.86480      6.38314        -0.065586     -0.094280     -1.011987
Ti       9.39817     13.28434      6.36152         1.134562      0.155557      2.051773
Ti       9.45228      1.88046     10.66865         1.409219      1.121012      0.553609
Ti       9.38076     13.27322     10.69415         1.093005     -0.595102      0.076525
Ti       9.45584      5.70281      2.17716         0.249749      0.450920      0.474625
Ti       9.47285      5.70035     15.02152         0.144679      0.098843     -1.253621
Ti       9.55992      5.69597      6.32394         0.169751     -0.176207      0.822931
Ti       9.51047      5.63985     10.66372         0.722531     -0.205237      0.785162
Ti       9.38455      9.42138      2.24433         0.894339     -0.031950     -0.219182
Ti       9.41252      9.48704     14.95637        -0.168408     -0.020352      2.202972
Ti       9.42562      9.51285      6.53296         1.245851      0.113980     -0.293586
Ti       9.44416      9.42029     10.66352        -0.608233      1.352856     -0.531248
O       1.86668      1.93068      0.54004         0.113535      0.241263     -0.359944
O       1.89924      1.92867     13.35313         0.186580      0.066966     -0.167567
O       1.85996     13.34563      0.50651        -0.042795     -0.388787     -1.190605
O       1.84088     13.20623     13.08153         0.343620      0.203202      0.474524
O      13.23307      1.95446      0.48035         0.012204      0.181387     -0.446848
O      13.26083      1.77808     13.17077         0.130601      0.645559     -0.296544
O      13.23102     13.30531      0.39734         0.102903     -0.072618      0.559700
O      13.32697     13.39351     13.14358        -0.335277     -0.520663     -1.055281
O       1.91634      1.95393      4.74277         0.019132     -0.641190     -0.352139
O       1.78940     13.42441      4.89380        -0.003755     -0.119435     -1.779358
O      13.17716      1.83034      4.71988         0.163494      0.200199     -0.309869
O      13.34436     13.47335      4.67077        -0.091813     -0.505776     -0.220257
O       1.94800      1.87759      8.83699        -0.151755      0.079849      0.401629
O       1.92802     13.27070      9.01901         0.265723      0.063194     -0.457878
O      13.29741      1.79237      8.88242         0.226499      0.066752     -1.540099
O      13.21028     13.41763      9.00639         0.315464     -0.318603      0.660736
O       1.91987      5.93669      0.47539         0.107352     -0.759640     -0.754790
O       2.00534      5.65939     13.23403        -0.428345     -0.067560     -0.432628
O      13.36694      5.69368      0.37712        -0.050830     -0.125311     -1.931654
O      13.54398      5.49230     13.19633        -0.649253      0.963601      0.030865
O       1.97728      5.68700      4.70225        -0.785967      0.121296      0.089162
O      13.29799      5.67446      4.75315         0.138020     -0.010838     -0.260105
O       1.92032      5.67948      8.84477         0.125682      0.258337     -0.161397
O      13.41114      5.69128      8.84943        -0.390725      0.137131     -0.113797
O       1.77367      9.67248      0.59830         0.567432     -0.586618      0.301402
O       1.82591      9.56572     13.22356         0.292296     -0.289912      0.235992
O      13.16790      9.66877      0.41748         0.133186     -0.104187     -0.067529
O      13.22004      9.42001     13.21671         0.108514      0.513657     -0.801040
O       1.79130      9.52120      4.71475        -0.278505     -0.163088     -0.200126
O      13.31742      9.62098      4.75383        -0.466002      0.003740     -1.297684
O       1.81047      9.44158      8.95987         0.594177      0.192357     -0.947791
O      13.20698      9.55177      8.92403         0.226157     -0.280644     -0.074838
O       5.73204      1.89184      0.52047        -0.159998      0.004994     -0.490474
O       5.80777      1.89719     13.21662        -0.237721      0.103312      0.401410
O       5.65470     13.44898      0.48208         0.259422     -0.543961      0.309321
O       5.64349     13.22604     13.25648         0.060596      0.036138     -2.151113
O       5.77616      1.92626      4.60372        -0.434138     -0.225836     -0.745222
O       5.60845     13.36725      4.58686        -0.130503     -0.247469      0.872957
O       5.72044      1.81544      8.91256        -0.010234      0.174006      0.388311
O       5.66005     13.35117      8.85786        -0.004118     -0.044696     -0.133232
O       5.55701      5.74389      0.37430         0.284300     -0.240391      0.405151
O       5.63923      5.60681     13.06934         0.346249      0.026582      0.655676
O       5.70448      5.64963      4.63554         0.115321      0.058902      0.717325
O       5.80752      5.58109      8.89887        -0.554331      0.551297      0.414639
O       5.64232      9.49345      0.52819        -0.101602     -0.272359     -0.923635
O       5.77478      9.63698     13.18091        -0.644004     -0.436028      0.914721
O       5.52951      9.41355      4.74144         0.487470      0.030787     -0.027285
O       5.67420      9.26716      8.94926        -0.333986      0.391619     -0.759364
O       9.65229      1.88392      0.36021        -0.477537      0.751174      0.071916
O       9.39065      1.73508     13.20906         0.268730      0.810726      0.325850
O       9.45040     13.11647      0.56123        -0.093396      0.211209     -1.301819
O       9.42995     13.44770     13.02076         0.207801     -0.623315     -0.168873
O       9.58010      1.84974      4.56988        -0.349736     -0.251773      1.141556
O       9.48766     13.34114      4.65555        -0.199239      0.189575     -1.363311
O       9.39983      2.10882      8.91810         0.324429     -0.886509      0.224958
O       9.40958     13.18062      8.87163        -0.120387      0.438667      0.850639
O       9.48582      5.74509      0.40062        -0.289538     -0.561527     -0.787452
O       9.50059      5.76460     13.21910        -0.134991      0.115251      0.472250
O       9.65253      5.96219      4.56755        -0.758662     -0.657001      0.422657
O       9.61819      5.49803      8.91802        -0.336347      0.385104     -0.136167
O       9.45871      9.51550      0.46555        -0.536697      0.077679      0.556163
O       9.41645      9.42658     13.24779         0.032783      0.074822     -2.152110
O       9.57804      9.36668      4.74796        -0.404849      0.066242      0.165994
O       9.41442      9.64099      8.86670         0.008474     -0.694135      0.568920
O       3.75792      1.92810      2.63976         0.644848     -0.381433      0.300414
O       3.87946      1.88335     15.41312        -0.771558      0.927573      0.210192
O       3.74073     13.36697      2.60404        -0.189149     -0.708304      0.202036
O       3.73890     13.31099     15.39685         0.288793     -0.013114     -0.371787
O      15.16365      1.91720      2.56254         0.299762      0.300436      0.423903
O      15.18397      1.88759     15.34520        -0.347224     -0.013992      0.356730
O      15.12599     13.41822      2.54455         0.304856     -0.333832      0.249779
O       0.02774     13.42171     15.29597        -0.939180     -0.673156     -0.157977
O       3.84477      1.84250      6.82693        -0.370478     -0.165794     -0.229885
O       3.79484     13.31265      6.82980        -0.191433     -0.321027      0.323038
O       0.02615      1.94756      6.81585        -0.286450     -0.732796     -0.022373
O      15.08990     13.19536      7.03703         0.888557      0.340931     -0.225268
O       3.73452      1.84201     11.04433         0.198887      0.510816      0.041102
O       3.84048     13.31353     11.13828        -0.426116     -0.225497     -0.232063
O      15.14022      1.95173     11.00530         0.713715     -0.051007      0.098676
O       0.00148     13.28329     11.09020        -0.484692      0.170698     -0.002635
O       3.72805      5.74402      2.59850         0.724842     -0.492097     -0.212494
O       3.80163      5.53171     15.31597         0.320980      0.411413      0.033848
O      15.16399      5.69505      2.69988         1.025401      0.576681     -0.897551
O       0.00974      5.75389     15.33842         0.603241      0.480302      0.238072
O       3.80304      5.60447      6.61427         1.067321      0.679419      0.943358
O       0.03445      5.70395      6.76320        -0.222136     -0.247186      0.111700
O       3.89029      5.60300     11.09047        -1.586755      0.424316     -0.302170
O       0.02017      5.71815     11.00078         0.633991      0.260799      0.133905
O       3.72635      9.57537      2.69636        -0.452201      0.119316     -0.363973
O       3.72834      9.44446     15.50296         1.589583      0.610645     -0.277314
O      15.05750      9.48940      2.44958         0.888551      0.215393      1.025677
O       0.01894      9.49848     15.41489        -1.221291     -0.121191     -0.150411
O       3.66587      9.36903      6.78621         1.368954      0.396404      0.678274
O      15.11241      9.49117      6.82351        -0.369387      0.366845      0.662642
O       3.81649      9.46993     11.26518        -1.455687      0.145687     -0.621623
O       0.00183      9.41748     10.93686        -0.802631      0.188180      0.621555
O       7.61949      1.82889      2.65126        -0.105274      0.394509     -0.415231
O       7.56432      1.81157     15.59992         1.113542      0.100475     -0.603615
O       7.50067     13.20950      2.70493         0.948190      0.819141     -0.145188
O       7.62450     13.32110     15.41614        -0.307997      0.294240     -0.541465
O       7.63730      1.79575      6.78375        -0.516123      0.404444     -0.330670
O       7.45978     13.32476      6.72558         1.237556     -0.102213      0.162412
O       7.59933      1.89625     11.14031        -0.027761      0.133835     -0.579692
O       7.56168     13.23688     11.08876        -0.757496      0.591679     -0.392331
O       7.49543      5.79680      2.50551        -0.000175     -0.235177      0.057861
O       7.55234      5.68619     15.25586         0.269129      0.561385      0.511417
O       7.66473      5.76122      6.79535        -0.317539     -0.298347     -0.600697
O       7.64577      5.75192     11.02791        -0.333421     -0.074116      0.320962
O       7.47204      9.26851      2.74757         0.916356      0.588882     -0.301439
O       7.50116      9.53034     15.43686        -0.107120     -0.362867     -0.249404
O       7.58901      9.39508      6.75719        -0.772005      0.055929      0.142299
O       7.53604      9.42698     11.17307         0.805035     -0.412540     -0.180380
O      11.39260      2.05639      2.65083         0.233654     -0.491535     -0.752024
O      11.36342      2.05070     15.28232         0.151004     -0.214889     -0.127055
O      11.33614     13.25091      2.58937         0.234649     -0.037585      0.273794
O      11.37960     13.25080     15.27159        -0.489872     -0.277867     -0.551702
O      11.35706      1.82974      7.02802         0.504009      0.156764     -1.202057
O      11.40494     13.40593      6.79591        -0.900282     -0.110088     -0.097538
O      11.40782      1.98606     11.04177        -1.156548     -0.455353      0.153296
O      11.37074     13.29151     11.00064        -0.783935     -0.485910      0.669648
O      11.31552      5.73210      2.49040         1.754551     -0.173137     -0.208357
O      11.42284      5.78091     15.27788        -0.376711     -0.427802      0.110776
O      11.36648      5.57846      6.84965         0.840301      0.424665     -0.228784
O      11.47633      5.70751     11.21344        -0.902404     -0.484469     -0.582056
O      11.31455      9.47785      2.61650         0.281234      0.550478      0.023348
O      11.25548      9.47656     15.39694         1.718786      0.405205     -0.643148
O      11.38526      9.54470      6.99191        -1.323090     -0.207350     -0.372967
O      11.31552      9.40828     11.06942         0.796452      1.051825      0.112598
O       1.99438      3.89145      2.58647        -0.870610     -0.340262      0.016214
O       1.78303      3.79612     15.31787         0.435001      0.356755      0.762858
O       1.84134      0.00556      2.65789         0.288559      0.644058      0.297582
O       1.89819     15.15473     15.39069         0.203563      0.543789     -0.196223
O      13.32405      3.94340      2.63919        -0.109626     -1.530537     -0.318772
O      13.37585      3.86518     15.34775        -0.403904     -0.689380      0.269109
O      13.17465      0.02572      2.53700        -0.009238      0.037716      0.056663
O      13.23198     15.19775     15.32512        -0.211047     -0.035922     -0.039359
O       2.00209      3.75586      6.78017        -0.395215      0.440277      0.302858
O       1.97215     15.11245      7.03249        -0.598572      1.269572     -0.384609
O      13.40104      3.72259      6.95500        -0.724014      0.598436     -0.751564
O      13.39029      0.00982      6.85378        -0.098305      0.375123      0.209039
O       1.83875      3.87128     10.98400         0.310450     -1.017728      0.388447
O       1.76327      0.04286     11.17647         0.667994     -0.162264     -0.563668
O      13.19937      3.81365     10.91218         0.595086     -0.680575      0.279979
O      13.21735      0.05299     11.06003         0.424422     -0.477122      0.362426
O       1.87295      7.62109      2.72565        -0.207285      0.066228     -0.463772
O       1.94297      7.65369     15.34159        -0.092982     -2.514885      0.208419
O      13.31772      7.62328      2.42153        -0.224384     -0.030639      0.539556
O      13.26159      7.64996     15.36192         0.302991     -0.160451     -0.021933
O       1.83702      7.64290      6.94329         0.029067     -1.736370     -0.352582
O      13.23695      7.62718      6.71489        -0.075233     -0.836105      0.699336
O       1.90477      7.59298     11.11141         0.367347     -0.608724     -0.065221
O      13.24695      7.54256     11.13200         0.528899      0.977980     -0.293175
O       1.73547     11.45954      2.82944         0.041492      0.117206     -0.592710
O       1.85786     11.39162     15.40479         0.153070      0.423599     -0.288038
O      13.23346     11.46881      2.63239         0.242651     -0.445564      0.070952
O      13.36835     11.41638     15.28930        -0.440721     -0.622924     -0.388909
O       1.89211     11.39024      6.90972         0.215947     -0.363933      0.128397
O      13.13840     11.45302      6.88877         0.568616      0.246723     -0.052419
O       1.81761     11.38408     11.12935         0.565463     -0.833309     -0.235169
O      13.31239     11.36691     11.05138        -0.442317     -0.316976      0.327344
O       5.66428      3.73763      2.54187         0.065157      1.591691     -0.053572
O       5.88349      3.81324     15.25002        -0.725860     -0.304443      0.639331
O       5.64371     15.17384      2.63448         0.266562      0.717384      0.174492
O       5.63384      0.01555     15.30136         0.420786     -0.614153      0.259729
O       5.77465      3.73987      6.80648        -0.190131     -0.017293     -0.362297
O       5.77136      0.02689      6.75490        -0.620524     -0.880658     -0.160724
O       5.69025      3.75050     11.00530         0.246181      0.532923      0.344609
O       5.62137      0.01079     11.06711         0.547706     -0.444636     -0.004917
O       5.42147      7.58416      2.56631         0.510803     -0.623416     -0.431152
O       5.73498      7.59061     15.21878        -0.546843      0.018795      0.179390
O       5.68717      7.53405      6.92054        -0.068971     -0.509449     -0.420143
O       5.61245      7.58087     11.21318         0.322634     -0.661518     -0.238187
O       5.69676     11.38584      2.57364        -0.242257     -0.355022      0.027769
O       5.60618     11.44866     15.38839         0.188794     -1.148987      0.177102
O       5.68146     11.30743      6.87197        -0.603610      0.754823     -0.382934
O       5.70425     11.29513     10.83455        -0.006777      2.068043      0.350878
O       9.46264      3.85719      2.58528        -0.623474     -0.611928     -0.214618
O       9.39593      3.83512     15.20447         0.030765     -0.772851      0.657640
O       9.52399      0.02246      2.30300        -0.280818     -0.388748      0.821515
O       9.61067      0.00025     15.22921        -0.409113     -0.662760      0.330817
O       9.49201      3.76286      6.62911        -0.001132      0.455176     -0.095460
O       9.49181      0.00842      6.90223        -0.379445     -0.794864     -0.361444
O       9.53875      3.84067     11.16693        -0.424317     -1.081259      0.082274
O       9.53789      0.02909     11.05451        -0.434296     -0.245293     -0.659408
O       9.50961      7.55791      2.51213        -0.405355      1.098129      0.213996
O       9.42197      7.59143     15.47203        -0.454130      0.277788     -0.401094
O       9.49321      7.55267      6.94097         0.471073      0.240272     -0.520903
O       9.56437      7.57718     11.03427        -0.738147     -0.314315     -0.280746
O       9.33590     11.36674      2.68974         0.188832     -1.334217     -0.068600
O       9.35390     11.35118     15.27900         0.555779      1.299331     -0.529125
O       9.38676     11.42734      6.75466         0.218978     -0.067628     -0.206021
O       9.38855     11.34887     11.09241         0.722489      0.182371      0.305592
