  # total energy = -7881.87133872 
CRSYTAL
PRIMVEC
    15.6000000000000000    0.0000000000000000    0.0000000000000000
     0.0000000000000000   15.6000000000000000    0.0000000000000000
     0.0000000000000000    0.0000000000000000    17.640000000000000
PRESSURE
-2.33075 -2.33906 -0.006169 0.154437 -0.214746 0.036348
PRIMCOORD
320 1
Pb       3.75151      3.74424      4.36787         0.398544      0.486716      0.885734
Pb       3.89442      3.92718     17.56807         0.134423     -0.028397      0.565003
Pb       3.88254     15.51910      4.28521        -0.407360      0.393787      0.865661
Pb       3.78475     15.56402     17.49313         0.265843      0.097553      1.019419
Pb       0.05377      3.89435      4.35108        -0.297808     -0.223990      0.542796
Pb      15.59024      3.98256     17.61798        -0.064869     -0.478336      0.650635
Pb      15.52610     15.51965      4.25751         0.339213      0.168484      0.883539
Pb      15.47171      0.03687     17.52074         0.036436     -0.228709      0.905553
Pb       3.80441      3.96231      8.76166         0.562350     -0.151659      0.693083
Pb       3.81689      0.05934      8.68442         0.361213      0.032788      0.747310
Pb      15.55806      3.93986      8.65980         0.029220     -0.237258      1.518977
Pb       0.00892     15.58853      8.73120        -0.305425      0.245761      0.244505
Pb       3.92740      3.60811     13.21722        -0.122205      0.579750      0.170579
Pb       3.79613     15.49791     13.12663         0.272507      0.471480      0.805877
Pb      15.59879      3.76253     13.14392         0.124465      0.364896      0.463897
Pb      15.58855      0.14054     13.09522        -0.211702     -0.546323      0.717316
Pb       3.88752      7.81074      4.38623        -0.539449      0.165730      0.785662
Pb       3.95307      7.81946     17.56616         0.134484      0.139513      0.680631
Pb       0.05274      7.99971      4.41269         0.145583     -0.654138      0.171650
Pb       0.06018      7.87530     17.49048        -0.305869     -0.510214      0.770562
Pb       3.92807      7.92723      8.83250        -0.479540     -0.581588     -0.104109
Pb      15.54719      7.81569      8.85119        -0.052893     -0.388906      0.011642
Pb       3.92223      7.77196     13.08511        -0.304629      0.221139      1.049888
Pb       0.09080      7.90274     13.16003        -0.340911     -0.643043      0.375623
Pb       3.91212     11.64490      4.34760         0.079916     -0.238930      0.250539
Pb       3.94885     11.62709     17.53059        -0.432369      0.297821      1.302452
Pb      15.51179     11.53049      4.26161        -0.076597      0.483271      0.524991
Pb      15.54189     11.63208     17.46432         0.257849      0.308223      0.662662
Pb       3.83348     11.57263      8.71707         0.358055      0.318869      0.839994
Pb      15.50498     11.79412      8.77412        -0.116882     -0.009733      0.217570
Pb       3.82829     11.78986     13.11343         0.224427     -0.141796      0.898196
Pb      15.49615     11.62213     13.11406         0.296748      0.740244      1.574708
Pb       7.88467      3.65867      4.51138        -0.540421      0.341248      0.141688
Pb       7.77976      3.82347     17.52626        -0.142344      0.032507      0.837071
Pb       7.68604     15.43584      4.29544         0.212398      0.576200      1.018812
Pb       7.75030     15.58966     17.60969        -0.007367      0.089730      0.276421
Pb       7.66087      3.92113      8.71761        -0.090517     -0.060888      0.416527
Pb       7.83136     15.57814      8.66577        -0.176706      0.442304      0.967526
Pb       8.08001      3.98317     13.05417        -1.567260     -0.027133      0.985261
Pb       7.79955      0.03691     13.20962         0.281259      0.044927      0.367871
Pb       7.96562      7.74424      4.34987        -0.301738     -0.085564      0.955255
Pb       7.82859      7.91434      0.00190        -0.407799     -0.222872      0.459858
Pb       7.71878      7.83670      8.69524         0.830747     -0.364644      0.982630
Pb       7.74761      7.94828     13.06804         0.542497     -0.658664      0.345679
Pb       7.87801     11.72404      4.39482        -0.439540     -0.101258      0.050516
Pb       7.77462     11.72415      0.01715        -0.183340     -0.346063      0.076706
Pb       7.85445     11.72260      8.95739        -0.053880     -0.085477     -0.711817
Pb       7.79695     11.80043     13.17638        -0.309634     -0.404978      0.308252
Pb      11.65434      3.88853      4.42909         0.091947     -0.414201      0.239779
Pb      11.88057      3.82659     17.59351        -0.593735      0.107732      0.538482
Pb      11.49223     15.38252      4.40115         0.734729      0.764365      0.595354
Pb      11.43646     15.46977     17.60088         0.949173      0.167446      0.450351
Pb      11.51925      3.92214      8.76344         0.602071     -0.226031      0.151949
Pb      11.84182      0.07602      8.66036        -0.467359     -0.050863      1.099441
Pb      11.81647      3.93668     13.16786        -0.246014     -0.430827      0.670657
Pb      11.68945     15.54726     13.13937        -0.203291      0.136202      0.112657
Pb      11.78788      7.64646      4.22099        -0.590081      0.582604      1.275232
Pb      11.70499      7.69542     17.46989         0.044060      0.417466      1.054541
Pb      11.56143      7.79849      8.66805         0.117794      0.119751      0.760298
Pb      11.76226      7.70207     13.21332        -0.358298      0.589288     -0.126862
Pb      11.67454     11.65474      4.21285         0.337634     -0.062716      0.429390
Pb      11.84704     11.53985     17.42029        -0.652771      0.464804      0.812633
Pb      11.74947     11.60501      8.56202        -0.096294     -0.037349      0.972744
Pb      11.59907     11.60913     12.96036         0.010987      0.199217      1.069788
Ti       1.87013      1.84768      2.41048         0.033572      0.993341     -0.681664
Ti       1.90957      1.95067     15.75580        -0.332734     -0.087750     -1.935107
Ti       1.96167     13.53306      2.43828        -1.020340      0.238189     -0.625833
Ti       1.90726     13.61706     15.73416        -0.266408     -0.024410     -2.305337
Ti      13.58253      1.86970      2.48629        -0.159166      0.735240     -0.422984
Ti      13.52192      1.86289     15.64327         0.272392      0.164124      0.431493
Ti      13.67839     13.64554      2.39583        -0.212672     -0.357781      0.173982
Ti      13.61079     13.62970     15.59596        -0.437556      0.551234      0.240277
Ti       1.91793      1.96341      6.84014         0.077306      0.186773     -0.304389
Ti       1.95427     13.60436      6.81493        -0.650586      0.789326      0.245072
Ti      13.66390      2.03810      6.81792        -0.515295     -0.832832      0.949468
Ti      13.63159     13.62973      6.80172         0.147885     -0.086116     -1.093875
Ti       1.89329      1.92632     11.19227         0.508411      0.644641     -0.979990
Ti       1.86269     13.67961     11.26662        -0.090246     -0.375316      0.032417
Ti      13.57620      1.95423     11.20054        -0.090834     -0.427696      0.478490
Ti      13.65270     13.63519     11.31550        -0.756003      0.427203     -1.829892
Ti       1.91853      5.82684      2.48692         0.129816      0.619084     -1.630488
Ti       1.96203      5.87315     15.69373        -0.311905     -0.136125     -0.993996
Ti      13.70232      5.78423      2.50206        -0.404924     -0.443251     -2.220733
Ti      13.64396      5.81690     15.62890        -0.120929     -0.351199      1.204606
Ti       1.89325      5.86568      6.94618        -0.037760      0.372756     -0.585130
Ti      13.59667      5.83153      6.84564        -0.177746     -0.115130      0.918060
Ti       1.91995      5.81245     11.36066        -0.177550     -0.382569     -1.068298
Ti      13.67441      5.80389     11.28846        -0.039995      0.787257     -1.027916
Ti       1.97315      9.74622      2.33808         0.344669     -0.151739      0.699969
Ti       1.99915      9.74834     15.61202        -0.167813      0.796086      0.451674
Ti      13.63977      9.66034      2.23743        -0.366623      0.298009     -0.399015
Ti      13.68209      9.67054     15.51903        -0.315602      0.090869      0.412772
Ti       1.85585      9.80816      6.94355         0.370242     -1.075461     -1.569568
Ti      13.67223      9.62997      6.85103        -0.226207      0.449214     -1.739078
Ti       1.89214      9.80245     11.27760         0.791850     -0.033500     -1.192177
Ti      13.63987      9.73877     11.22638        -1.051292     -0.669245     -0.553901
Ti       5.82784      1.92308      2.47620        -0.333048      0.363389      2.765915
Ti       5.78982      1.91750     15.61186         0.604575      0.106352      0.255119
Ti       5.78839     13.62043      2.40351         0.377374     -1.051405      1.247250
Ti       5.79902     13.65976     15.67521        -0.277628     -0.269495     -0.462654
Ti       5.79154      1.94259      6.86654         0.145854      0.282561      0.402813
Ti       5.78696     13.58588      6.95319         0.351106     -0.031270     -0.928123
Ti       5.86685      1.91862     11.25301        -0.183853      0.585213     -1.149881
Ti       5.88627     13.70468     11.23581        -0.531174     -0.483616      1.810093
Ti       5.82279      5.80930      2.63506        -0.449680     -0.963033     -1.448769
Ti       5.82572      5.88664     15.62427         0.169055     -0.215826      1.217067
Ti       5.75469      5.90457      6.82397        -0.051461     -1.128416      0.444805
Ti       5.71957      5.82627     11.29660         1.510724     -1.124082     -0.977904
Ti       5.91294      9.66536      2.55135        -0.827023      1.413639     -0.894645
Ti       5.84800      9.77212     15.62592         0.070693      0.553708      0.734480
Ti       5.82157      9.72040      6.79727         0.065012      0.637503     -0.061490
Ti       5.78524      9.76996     11.24536        -0.109159      0.920020     -0.600748
Ti       9.74883      1.85570      2.48646        -0.074691      0.546819      1.184586
Ti       9.68967      1.93753     15.60986         0.241979     -0.159473      0.633982
Ti       9.71688     13.60294      2.43337        -0.163615     -0.019042     -0.215645
Ti       9.66845     13.56174     15.66772         0.487520      0.509843     -0.569707
Ti       9.71882      1.91133      6.87097         0.277962      0.413856     -0.329366
Ti       9.75370     13.66517      6.90629         0.095902     -0.451300     -0.920696
Ti       9.73223      1.98532     11.21959         0.757613     -1.678856     -1.627956
Ti       9.71196     13.67902     11.22649         0.304510      0.619626     -1.042055
Ti       9.66929      5.75200      2.46130         0.399272     -0.265740      0.240146
Ti       9.66562      5.81953     15.71148         0.438210     -0.386049     -1.069362
Ti       9.67148      5.81984      6.86382         0.336422      0.151744     -0.834973
Ti       9.80294      5.82057     11.22900        -0.965047      1.757954     -0.705509
Ti       9.73500      9.68238      2.37699         0.311046      0.171599      0.583020
Ti       9.73231      9.72905     15.61162        -0.335458      0.389457     -0.207693
Ti       9.62996      9.76166      6.76055         0.607471     -0.274105      0.428671
Ti       9.70641      9.75322     11.16962         0.319512     -0.804981     -0.562688
O       1.84922      1.97135      0.64774         0.352744     -0.171936      0.039458
O       1.98928      1.94025     13.88595        -0.444413     -0.001550      1.370232
O       1.97472     13.63185      0.71680        -0.092845     -0.145733     -0.767523
O       1.90837     13.59640     13.93679         0.014376      0.461933      0.897615
O      13.57170      1.91822      0.72349        -0.151325     -0.048040      0.155590
O      13.57732      1.90778     13.90980         0.258756      0.104992     -0.589975
O      13.65786     13.67822      0.68790        -0.100815     -0.113648     -0.695735
O      13.55895     13.70153     13.88310        -0.026279     -0.057725     -1.019411
O       1.94623      2.08679      5.08108        -0.300418     -0.409852      0.294525
O       1.92836     13.66967      5.10833         0.171593     -0.159471     -0.836790
O      13.53390      2.04297      5.14240         0.570904     -0.033350     -1.731636
O      13.57462     13.50448      5.05310         0.176695      0.436511      0.154012
O       1.87919      1.96800      9.44648         0.338879     -0.264842      0.291698
O       1.79065     13.61193      9.55626         0.087448     -0.059676     -0.776031
O      13.64261      1.87096      9.51829        -0.220547      0.245323     -1.415498
O      13.61310     13.60131      9.53490         0.308848     -0.088462      0.431048
O       1.81008      5.86998      0.66519         0.479330      0.102925      1.052591
O       1.94748      5.95481     13.94674        -0.089511     -0.275679      0.212664
O      13.66355      5.77134      0.65966        -0.113375     -0.017788      1.378219
O      13.57663      5.68833     13.91632        -0.007982      0.308852     -0.642411
O       1.87603      5.76116      5.23834         0.044904      0.324103     -1.030080
O      13.52590      5.90271      5.14194         0.208046     -0.129014     -1.413591
O       1.89559      5.74967      9.62092        -0.081871      0.352183      0.110830
O      13.64952      5.79763      9.55483         0.080952      0.162612      0.058493
O       1.93670      9.78404      0.63275         0.014415     -0.326099     -1.756898
O       1.94087      9.80024     13.90140         0.017155     -0.344874     -1.000360
O      13.58796      9.62719      0.44461         0.293367      0.147905      1.179842
O      13.68297      9.66196     13.78423        -0.054265      0.018625     -0.248105
O       1.94326      9.77641      5.16897        -0.595226      0.017608      0.588669
O      13.94264      9.65174      5.04646        -0.887523     -0.123941      1.047488
O       1.86349      9.92447      9.49659         0.144597     -0.364174      0.360168
O      13.61744      9.79694      9.47411         0.456375     -0.071190      0.027469
O       5.92762      1.93570      0.82715        -0.212435      0.080733     -2.700983
O       5.86363      1.88827     13.87872        -0.246814      0.112864     -0.231317
O       5.76138     13.60710      0.72480         0.061469      0.160625     -1.865830
O       5.70004     13.62002     13.93102         0.409442      0.131795      0.112404
O       5.85873      2.03196      5.16466        -0.325194     -0.533025     -0.853600
O       5.84546     13.57869      5.21805        -0.148998      0.029630     -0.214103
O       5.80869      1.93786      9.47015         0.283422     -0.130406      1.102362
O       5.89652     13.65085      9.55974         0.082403      0.086773     -2.137371
O       5.75592      5.78131      0.82964         0.154576      0.134479      1.435783
O       5.75266      5.93715     13.93808         0.308619     -0.062738     -0.827896
O       5.66727      5.94717      5.12633         0.255149     -0.115157     -0.741013
O       5.78125      5.68358      9.55037        -0.067911      0.681087      0.289068
O       5.78594      9.73655      0.79412         0.404015     -0.326958      0.088501
O       5.78408      9.85979     13.92135         0.234447     -0.254986     -0.966344
O       5.74563      9.69497      5.05682         0.278796      0.350706      0.001506
O       5.68432      9.83700      9.47662         0.454226     -0.311370      0.565131
O       9.73832      1.91132      0.79275         0.016630     -0.198498     -1.355114
O       9.63424      1.85746     13.89570         0.128710      0.240097     -0.713269
O       9.64629     13.70509      0.72125         0.150610     -0.167642     -1.036249
O       9.63809     13.64083     13.91896         0.006450     -0.285817     -0.029466
O       9.64015      1.85330      5.13523         0.111006      0.108938     -0.413923
O       9.78584     13.61439      5.10871        -0.329531      0.013509      0.378106
O       9.82928      1.92331      9.43333        -0.347253      0.288716      0.909072
O       9.67687     13.74390      9.45419        -0.167850     -0.501156      0.433704
O       9.65140      5.82907      0.73618         0.054741     -0.283641     -0.294687
O       9.80663      5.85223     13.93199        -0.357179     -0.004883      0.698619
O       9.74257      5.81164      5.11910         0.047278      0.085451     -0.214300
O       9.81064      5.95596      9.47792         0.064240     -0.636827      0.481434
O       9.62702      9.69923      0.66584         0.082291      0.063565     -0.793620
O       9.67612      9.76694     13.86276        -0.050438     -0.143975      0.268599
O       9.57211      9.72993      5.03670         0.260450      0.204456     -0.254765
O       9.73194      9.78138      9.41845        -0.372092      0.051876     -0.080027
O       3.79587      1.88837      2.89164         0.250599     -0.143631     -0.292042
O       3.90782      1.92146     16.07730        -0.615370     -0.042700      0.053986
O       3.82354     13.59691      2.88711         0.421980      0.042848     -0.059693
O       3.84106     13.65281     16.02489         0.013637      0.055191      0.378701
O      15.54100      2.02478      2.86741         0.170248     -0.505485      0.067290
O       0.03049      1.87480     16.11567        -0.533906      0.461536     -0.587415
O      15.59249     13.63454      2.82509        -0.120549     -0.173826      0.148234
O      15.46697     13.69878     16.02656         0.832659     -0.264756      0.222437
O       3.84780      1.98868      7.30496         0.100547     -0.132927     -0.223972
O       3.82537     13.47320      7.34496         0.476135      0.896010     -0.380566
O       0.03936      1.95776      7.29953        -0.319328      0.004570     -0.505324
O      15.53882     13.73953      7.18849         0.279490     -0.441446      0.286356
O       3.90655      1.91406     11.58381        -0.143077     -0.090756      0.244876
O       3.76426     13.70244     11.67056         0.618551     -0.216424     -0.423594
O      15.57547      1.96622     11.52374        -0.230285     -0.099772      0.796981
O      15.52946     13.60738     11.66560         0.105502      0.366724      0.248783
O       3.85461      5.89933      2.97758        -0.237463     -0.156650     -0.470530
O       3.88461      5.88486     16.12893         0.137947      0.002169     -0.148741
O      15.58791      5.83304      2.93578         0.152077      0.236110     -0.144845
O      15.49948      5.78963     16.13789         1.067466      0.758618     -0.758799
O       3.80608      5.96945      7.34046         0.841780     -0.211381      0.070380
O      15.50521      5.82412      7.26014         0.447540      0.276548      0.218242
O       3.88465      5.76311     11.71488        -0.573382      0.371144      0.028655
O      15.53712      5.88696     11.81100         0.978797     -0.281257     -0.191038
O       3.84507      9.83971      2.80000         0.801626     -0.357188      0.323862
O       3.90157      9.81623     16.09129         0.000976     -0.495248     -0.274673
O      15.57938      9.68507      2.65414        -0.918964     -0.093301      0.251632
O       0.00072      9.72872     15.99255        -0.226191     -0.184056     -0.194956
O       3.89214      9.71482      7.21896        -0.394200      0.001628      0.383226
O      15.56835      9.69457      7.24745        -0.166790      0.003094      0.543717
O       3.89631      9.72447     11.65833        -0.485419      0.614993     -0.095387
O      15.58662      9.76092     11.67476        -0.089370     -0.420464     -0.339599
O       7.72090      1.87525      2.92581         0.431190     -0.130484     -0.025690
O       7.76977      1.86952     16.13538        -0.029091      0.233368     -0.343727
O       7.76227     13.64281      2.81286        -0.006451     -0.274949      0.084945
O       7.70711     13.54054     16.10175         0.616051      0.443774     -0.054897
O       7.75347      1.94717      7.23552         0.210691     -0.106252      0.219455
O       7.82850     13.66058      7.34364        -0.250778     -0.268666     -0.306394
O       7.85032      1.95520     11.63609        -0.273175      0.249141     -0.067033
O       7.77654     13.64996     11.74833        -0.008159     -0.020796     -0.486788
O       7.78826      5.70806      3.06099        -0.352537      0.481319     -0.779400
O       7.74148      5.72095     16.16479        -0.043405      0.665704     -0.765814
O       7.79031      5.85690      7.22566        -0.808523     -0.178361      0.220609
O       7.86759      5.88802     11.61598        -0.121042     -0.583115      0.275351
O       7.85748      9.71021      2.91132        -0.774515      0.040595     -0.267467
O       7.73430      9.79883     16.10541         0.782742      0.285708     -0.127392
O       7.72265      9.76211      7.24186         0.371867      0.060848      0.024411
O       7.72274      9.79873     11.61173        -0.160392      0.106062     -0.088204
O      11.64332      1.78818      3.00825         0.158992      0.478493     -0.596428
O      11.61588      1.89207     15.99638         0.407954      0.294453      0.251789
O      11.69669     13.66998      2.79941        -0.309899     -0.394509      0.031796
O      11.57478     13.62260     16.07267         1.015116     -0.172326      0.051351
O      11.70266      2.05582      7.21696        -0.430312     -0.342704      0.253963
O      11.71575     13.60009      7.21100        -0.048750      0.283719      0.133638
O      11.69074      1.88669     11.64520        -0.463282      0.246710      0.205780
O      11.59481     13.57423     11.61038         0.543836      0.247920      0.350695
O      11.72149      5.75124      2.98686        -0.588910      0.000943     -0.896830
O      11.63736      5.85693     16.12252         0.257682     -0.422341     -0.411547
O      11.66577      5.91125      7.28977        -0.329651     -0.637389     -0.085734
O      11.72799      5.91206     11.78121        -0.541032     -0.397718     -0.431069
O      11.64958      9.75010      2.72386         0.703419     -0.279435     -0.067218
O      11.70081      9.66072     15.93584        -0.186940      0.107726     -0.080616
O      11.66974      9.69669      7.07144         0.067257      0.007431      0.122786
O      11.67296      9.74702     11.48946        -0.027316      0.017255      0.581026
O       1.93117      3.94191      2.83048        -0.092674      0.003065     -0.061692
O       1.93058      3.92005     16.05149         0.195593      0.147663      0.011498
O       1.83850      0.03186      2.74478         0.230203     -1.145119      0.483585
O       1.89223      0.00083     16.09722         0.244733     -0.237386      0.003577
O      13.60278      3.86181      2.84208        -0.117119      0.121798      0.229260
O      13.69837      3.81522     16.13413        -0.653386      0.290415     -0.474109
O      13.66881     15.57277      2.87335        -0.064256     -0.213057     -0.119412
O      13.55072     15.59748     16.00676         0.104945     -0.317871      0.217265
O       1.96012      3.91401      7.33744        -0.312225     -0.006960     -0.373663
O       1.98856      0.00915      7.24558        -0.204193     -0.275810     -0.169449
O      13.62243      3.87559      7.34020        -0.127630      0.885617     -0.426648
O      13.63727      0.07726      7.23924         0.194692     -0.892443     -0.377092
O       1.88049      3.85119     11.69630         0.270112      0.254767      0.214288
O       1.89228      0.02353     11.61837        -0.298098     -0.269701      0.062002
O      13.56308      3.89507     11.60123         0.347690     -0.283054      0.455662
O      13.59288      0.02220     11.55990         0.225552     -0.833899      0.742263
O       1.96621      7.90363      2.91719        -0.234264     -1.246792     -0.334948
O       2.00833      7.88723     15.99667        -0.395248     -1.242388      0.409572
O      13.56143      7.72279      2.77829         0.546342      0.904284     -0.298977
O      13.60440      7.76214     15.96972         0.333458     -0.158793     -0.316389
O       1.83515      7.81496      7.35992         0.232194      0.315942      0.247821
O      13.59342      7.73153      7.35966         0.549858      0.795810     -0.297473
O       2.04389      7.83820     11.60806        -0.830350     -0.317331      0.204740
O      13.63284      7.79786     11.62475         0.182895      0.415742      0.355165
O       1.85934     11.62429      2.81181         0.160738      0.832503      0.188166
O       1.85501     11.70520     16.02973         0.157760      0.040442      0.331423
O      13.61902     11.61605      2.65716         0.062206     -0.205037      0.280489
O      13.68816     11.65582     15.96134        -0.459187     -0.158332     -0.195870
O       1.83288     11.72924      7.23452        -0.014914     -0.530746      0.255740
O      13.68394     11.61276      7.11038        -0.074165      0.446374      0.579295
O       1.79827     11.66221     11.80803         0.860153      0.451962     -0.925562
O      13.61256     11.69449     11.69924         0.068973     -0.296702     -0.315815
O       5.71266      3.80390      3.07519         0.592159      0.810518     -0.963479
O       5.75327      3.82423     16.03836         0.259751      0.762901     -0.000594
O       5.75405     15.49619      2.90249         0.144092      0.618078     -0.179793
O       5.83087      0.00354     16.15851        -0.041738     -0.473792     -0.335813
O       5.82772      3.92426      7.27511        -0.261752      0.234992     -0.114509
O       5.75500     15.58163      7.19603        -0.047879     -0.356938      0.397578
O       5.84479      3.89405     11.69124         0.221742     -0.350234      0.217003
O       5.91333      0.01193     11.80748        -0.509718     -0.059140     -0.845279
O       5.80987      7.83599      3.06096         0.481465     -0.933276     -0.907979
O       5.93331      7.89381     16.10647        -0.719181     -1.281004     -0.249369
O       5.90626      7.75017      7.32022        -0.896817      1.045811     -0.231798
O       5.80533      7.82400     11.63419         0.030804     -0.170331     -0.205397
O       5.87065     11.70252      2.84906        -0.033649     -0.221960      0.468748
O       5.78567     11.72823     16.20196         0.439046     -0.112036     -0.595433
O       5.84852     11.64542      7.26075        -0.042707      0.129430      0.228961
O       5.75899     11.80418     11.68159         0.314199     -0.615662     -0.219667
O       9.71770      3.79792      2.94040         0.138733      0.243654     -0.237800
O       9.74975      3.85891     16.04447        -0.345638      0.187128     -0.062629
O       9.66814     15.52736      2.87368         0.094443     -0.119352      0.124389
O       9.74739     15.55422     16.09759        -0.976585      0.033275     -0.204659
O       9.69862      3.88393      7.22259         0.006701      0.150238      0.206765
O       9.84344      0.01724      7.24150        -0.419332     -0.589444     -0.043400
O       9.89028      3.86555     11.63464        -0.202788      0.735329     -0.294431
O       9.70347     15.58708     11.63458         0.039868      0.020279      0.203904
O       9.73599      7.72987      2.78943        -0.024357     -0.146329      0.039149
O       9.60643      7.81598     16.16867         0.469062     -0.410336     -0.730578
O       9.61785      7.77742      7.23825         0.239512      0.768515     -0.159637
O       9.63340      7.83812     11.59188         0.711368     -0.156782      0.340309
O       9.71929     11.68054      2.81621        -0.039335      0.032533      0.058595
O       9.81234     11.65819     16.11563        -0.659088     -0.371794     -0.236205
O       9.76673     11.69087      7.23365        -0.562589     -0.008892     -0.027412
O       9.65888     11.65440     11.56841        -0.147269      0.628572      0.167566
