  # total energy = -7881.57595796 
CRSYTAL
PRIMVEC
    15.3600000000000000    0.0000000000000000    0.0000000000000000
     0.0000000000000000   15.3600000000000000    0.0000000000000000
     0.0000000000000000    0.0000000000000000    17.440000000000000
PRESSURE
1.0303 1.25417 -1.23649 -0.090965 -0.346581 0.040957
PRIMCOORD
320 1
Pb       3.90733      3.82269      4.39481         0.096476     -0.437957      0.090127
Pb       3.92186      3.81312      0.00969        -0.622679      0.367331     -0.501630
Pb       3.77648      0.02021      4.32926         0.273100      0.570158     -0.282014
Pb       3.71938     15.30856     17.35161         0.344446      0.324075      0.353946
Pb       0.06912      3.75381      4.36516         0.181979     -0.135946     -0.081060
Pb       0.07956      3.94031     17.43848         0.153941     -0.200930     -0.384790
Pb       0.10428      0.03296      4.34403         0.049630     -0.214413     -0.071211
Pb      15.23541      0.00785     17.37916         0.078827      0.152483     -0.133036
Pb       3.75128      3.75402      8.73104         0.055381      0.242940     -0.344944
Pb       3.83323     15.35292      8.59210         0.055517     -0.039818      0.461480
Pb      15.12063      3.97224      8.63334         0.643503     -0.646146     -0.015587
Pb      15.19634     15.32176      8.72435         0.109057      0.117501     -0.490979
Pb       3.81407      3.65141     13.09886         0.361399      0.124874     -0.177256
Pb       3.73607      0.00690     12.93013         0.460403      0.103671      0.437931
Pb       0.03542      3.78830     13.04763         0.244709     -0.064608     -0.224764
Pb      15.31366     15.25857     13.07552         0.164313      0.235122     -0.201173
Pb       3.85008      7.66544      4.32803         0.549907     -0.095518      0.024092
Pb       3.81786      7.58364     17.41963        -0.206523      0.247524     -0.188488
Pb       0.15072      7.83608      4.33652        -0.981999     -0.698406     -0.208736
Pb      15.23504      7.69411      0.01611         0.286534     -0.091443     -0.218525
Pb       3.80886      7.73535      8.61958         0.127067     -0.602041      0.278867
Pb       0.00117      7.60923      8.63096        -0.024672      0.042536     -0.074365
Pb       3.85456      7.55358     13.00501        -0.254855      0.103364      0.525922
Pb      15.33481      7.63593     13.11880         0.430352      0.099099     -0.614757
Pb       3.81321     11.58934      4.24099         0.068401     -0.379117      0.578975
Pb       3.97525     11.62864     17.40334        -0.370169     -0.729597      0.302637
Pb       0.08772     11.54684      4.35691        -0.379214      0.608468     -0.178934
Pb      15.27166     11.55135     17.31673         0.074857     -0.180829      0.515203
Pb       3.87809     11.52139      8.62473         0.136526     -0.394407     -0.141872
Pb      15.30411     11.44967      8.71604         0.486144      0.186194     -0.137087
Pb       3.92466     11.42609     13.12067        -0.246834      0.152139     -0.185453
Pb       0.19494     11.56802     13.03841        -0.561336     -0.791802      0.024553
Pb       7.71558      3.76762      4.30111        -0.724400      0.022536      0.386645
Pb       7.68770      3.86183      0.01998         0.000124      0.118766     -0.568701
Pb       7.69459      0.00064      4.41382        -0.199127      0.042825     -0.547218
Pb       7.53580      0.07106     17.30663         0.112915     -0.496049      0.286427
Pb       7.56392      3.86958      8.76879         0.011387     -0.160751     -0.679104
Pb       7.66057     15.28475      8.77161        -0.031788      0.008430     -0.497517
Pb       7.88620      3.92167     13.03614        -0.896895     -0.338132      0.156697
Pb       7.69342      0.12539     13.01257        -0.649200     -0.266842     -0.206422
Pb       7.74429      7.52976      4.33329        -0.490196      0.090161     -0.270197
Pb       7.59085      7.78666     17.42524        -0.117136     -0.542524     -0.092147
Pb       7.72900      7.65181      8.68739        -0.748720     -0.170544     -0.238395
Pb       7.64958      7.73355     13.05356        -0.576828     -0.469646      0.169478
Pb       7.64290     11.50380      4.33375        -0.083439     -0.195417     -0.086825
Pb       7.72471     11.55207     17.36329        -0.591345      0.368930      0.108391
Pb       7.56911     11.60640      8.57699        -0.316413     -0.656908      0.699796
Pb       7.79497     11.51016     12.98305        -0.862628      0.509454     -0.388600
Pb      11.44268      3.77404      4.30761        -0.192607      0.301126     -0.084733
Pb      11.73183      3.90842      0.11275        -0.173234     -0.554129     -0.417641
Pb      11.58290     15.26504      4.35982        -0.666167     -0.135511     -0.222211
Pb      11.26945     15.25807      0.03784         0.332816      0.298211     -0.429236
Pb      11.41674      3.87449      8.68334        -0.187192     -0.220392     -0.564629
Pb      11.50741      0.02799      8.76391        -0.183117     -0.073920     -0.714639
Pb      11.59761      3.71977     13.04579        -0.428180     -0.185586      0.015167
Pb      11.53592     15.31412     13.05678        -0.138232      0.432063      0.035286
Pb      11.54650      7.57197      4.37154        -0.264749      0.065722     -0.947910
Pb      11.50710      7.69320     17.40038        -0.084504     -0.257141      0.412083
Pb      11.55888      7.72064      8.70438        -0.178618     -0.317851     -0.699159
Pb      11.34908      7.61640     13.13289         0.309381     -0.081869      0.064179
Pb      11.57790     11.43460      4.26554        -0.593578      0.196717     -0.066504
Pb      11.39926     11.41465     17.35976         0.088675      0.341108     -0.128692
Pb      11.59302     11.43810      8.59709        -0.484744      0.381865     -0.113425
Pb      11.55323     11.47430     13.04015         0.375378     -0.026728     -0.240470
Ti       1.91711      1.99080      2.24831         0.727889     -0.779309      0.808578
Ti       1.87186      1.88338     15.38476         0.724180      0.523934      0.055425
Ti       1.82964     13.41250      2.31122         0.144292      0.866900     -1.119447
Ti       1.83641     13.34627     15.45250         0.493492      0.666766     -1.296695
Ti      13.37294      1.86205      2.41467         0.440737      0.257227     -1.245450
Ti      13.44924      1.97991     15.32286        -0.893101     -0.962831      0.802580
Ti      13.39345     13.37912      2.25980         0.173393      0.690171     -0.328287
Ti      13.27749     13.49380     15.44750         0.108770      0.518232     -0.665343
Ti       1.81666      1.84113      6.84434         0.635392      0.771250     -1.749613
Ti       1.89970     13.39708      6.75433        -0.519119     -0.257745     -0.487628
Ti      13.35150      1.88089      6.62760         0.224668     -0.022272      2.152024
Ti      13.45311     13.38556      6.65964        -0.583214      1.153321      0.504315
Ti       1.86774      1.79423     10.94116         1.042093      1.064729      0.558196
Ti       1.83273     13.28714     10.92032         1.178713      0.940596     -0.787120
Ti      13.48882      1.85850     11.05718        -0.740469      0.280728     -0.941231
Ti      13.40905     13.46549     10.99294        -0.103759     -0.871734     -1.301589
Ti       1.93368      5.78100      2.39949         0.791052     -1.035831     -2.155388
Ti       1.87448      5.70280     15.34697         0.901845      0.122224      0.636503
Ti      13.53079      5.70310      2.36946        -0.947644      1.339970     -0.183958
Ti      13.43475      5.73692     15.34792         0.396644     -0.006190     -0.974137
Ti       1.84718      5.68770      6.62392         1.321773     -0.038018      1.485327
Ti      13.32231      5.74062      6.56696         0.207701      0.098845      0.059237
Ti       1.93595      5.64590     11.04220        -0.430169      0.160402     -0.160236
Ti      13.33706      5.64704     11.15075         1.146649      0.853316      0.203367
Ti       1.79099      9.61366      2.31037         1.083354      0.641650     -2.433667
Ti       1.81870      9.52412     15.51137         0.828211     -0.063665     -0.542525
Ti      13.35515      9.60762      2.30532        -0.645306     -1.178123     -0.126054
Ti      13.35327      9.57142     15.33009         0.333603      0.123553      0.128578
Ti       1.81428      9.56045      6.69721         1.502795     -0.032463      0.305462
Ti      13.36437      9.62484      6.59565         0.444627     -1.214329     -0.876666
Ti       1.92758      9.49472     11.02937        -1.123861     -0.357932      0.133421
Ti      13.35620      9.44441     11.10618         1.157204      0.504202     -0.275817
Ti       5.71955      1.90111      2.24768        -0.185250     -0.658096      1.663630
Ti       5.67813      1.97946     15.43327        -0.468824     -0.291832     -1.656505
Ti       5.75178     13.38489      2.34040         0.380739      0.933716     -0.365127
Ti       5.70027     13.49113     15.33097         0.854361      0.138555     -0.495578
Ti       5.75062      1.81540      6.72696         0.144791      1.213700     -1.278168
Ti       5.67852     13.43301      6.59280         0.612387     -0.768492     -0.404884
Ti       5.71088      1.86555     10.91349        -0.243030      1.401384     -0.704029
Ti       5.62168     13.41053     11.05952         1.249532     -0.005545     -1.015647
Ti       5.67220      5.69745      2.32080         0.883378      0.856327      0.341111
Ti       5.74754      5.81242     15.44009        -0.439968     -0.760157      0.114518
Ti       5.70184      5.61887      6.70129         0.473441      1.146949     -0.710425
Ti       5.68878      5.66981     11.02410         0.375825     -0.325874     -0.396274
Ti       5.61893      9.60153      2.32404         0.600068     -0.806277     -0.199916
Ti       5.71589      9.63801     15.39346        -1.011946     -0.289845      0.695261
Ti       5.69152      9.47369      6.60438        -0.059613      0.758690      0.460527
Ti       5.71192      9.58453     11.07120         0.217163     -0.139433     -1.264789
Ti       9.51595      1.85267      2.32413         0.422196     -0.700736      0.394157
Ti       9.62877      1.91501     15.50130         0.424263     -0.157083      0.547564
Ti       9.53620     13.38750      2.33814         0.122869      0.317773      0.980559
Ti       9.49556     13.41356     15.22059         0.396737      0.661771      1.123280
Ti       9.55218      1.85443      6.68268        -0.608984      0.269121      0.087744
Ti       9.53631     13.34450      6.69539         1.107502      1.259493     -1.175913
Ti       9.55338      1.90860     10.93900         0.551312     -0.367522     -0.304074
Ti       9.59929     13.44483     11.00192        -1.537515      0.463038     -0.164515
Ti       9.54652      5.67995      2.24502         0.784641      0.881533      0.260608
Ti       9.64586      5.71652     15.52004        -1.000176      0.066814      0.160835
Ti       9.54240      5.73158      6.60967        -0.664227     -0.225575      0.013309
Ti       9.57036      5.72314     11.03133        -0.935668     -0.505185     -1.489253
Ti       9.45216      9.55274      2.30749         0.558420     -0.230944      0.966750
Ti       9.52160      9.56350     15.35787        -0.632253     -0.669377      0.202546
Ti       9.47177      9.52843      6.67457        -0.022170      0.287215      0.802569
Ti       9.56659      9.57417     11.03573        -0.437669     -0.070441     -0.575507
O       1.89886      1.94417      0.49072        -0.281540      0.144669     -0.492176
O       1.99277      1.98976     13.62445        -0.538910     -0.813884     -0.321439
O       1.72639     13.45947      0.51811         0.287501      0.121040      0.182978
O       1.80402     13.25419     13.57052        -0.044870      0.482931      1.336797
O      13.42927      1.99607      0.62826         0.319512     -0.468554      1.030104
O      13.44134      1.95947     13.55239        -0.017233     -0.091383     -0.688238
O      13.32073     13.43891      0.46434         0.275748      0.204875     -0.226556
O      13.31871     13.64602     13.67024         0.328494     -0.864106     -0.799687
O       1.84382      1.80648      4.99894         0.169457      0.190002      1.012125
O       1.79091     13.32437      4.94912         0.286539      0.057237     -0.167003
O      13.37853      1.96070      4.92596        -0.058234     -0.254764     -2.078016
O      13.50474     13.36083      4.92811        -0.409153     -0.006698     -1.025840
O       1.88834      1.83420      9.19159        -0.099777      0.047896     -1.040439
O       1.92525     13.30454      9.11987        -0.463090      0.088975      0.436132
O      13.51222      1.89093      9.25506        -0.174856     -0.102800      0.355073
O      13.50307     13.42535      9.16340        -0.320039     -0.046343      0.772922
O       1.88210      5.57175      0.52951        -0.039566      0.564841      1.414018
O       2.03936      5.80801     13.60715        -0.739138     -0.126821     -0.710492
O      13.48988      5.81474      0.56266         0.251231     -0.554237      0.235854
O      13.34069      5.70782     13.54429         0.110988     -0.122140      0.480396
O       2.03516      5.69695      4.90644        -0.436605      0.247287     -1.257570
O      13.38695      5.61866      4.84412        -0.337990      0.521380     -0.898482
O       1.93250      5.65479      9.27482        -0.382495      0.129750      0.324559
O      13.37210      5.81583      9.39160        -0.307205     -0.171609     -0.839400
O       1.81978      9.61515      0.50541        -0.150428     -0.023666      0.865200
O       1.70214      9.56385     13.70959         0.250445      0.282397      0.158525
O      13.27290      9.48979      0.52615         0.072200      0.295391     -0.016058
O      13.26069      9.53666     13.57076         0.310298      0.187640      0.006840
O       1.83085      9.56690      4.93234        -0.076584     -0.027606     -1.166452
O      13.25349      9.61095      4.81713         0.618445      0.123409     -0.182118
O       1.96493      9.53946      9.28998        -0.483854     -0.075749     -0.842124
O      13.26378      9.37708      9.27406         0.357038      0.544773      0.514243
O       5.63910      1.84051      0.49927         0.225615      0.423345     -0.710603
O       5.59845      1.82845     13.63012         0.430454      0.348228      0.705440
O       5.84289     13.29600      0.54903        -0.147597      0.246868      0.644906
O       5.69884     13.55308     13.55734        -0.082788     -0.429488     -0.202365
O       5.77000      1.83246      4.92058        -0.212344     -0.096404      0.169123
O       5.70023     13.32079      4.79830         0.049317      0.550536      0.520081
O       5.67160      1.91129      9.08022         0.350603     -0.083321      0.974541
O       5.76557     13.36359      9.21655        -0.538482      0.164721      1.329755
O       5.62661      5.83623      0.56141         0.098796     -0.491492     -0.620210
O       5.62721      5.70834     13.70542         0.611322      0.398494     -0.934717
O       5.69358      5.72703      4.90659        -0.174775      0.193001      0.159291
O       5.81480      5.60927      9.24971        -0.026563      0.100827     -0.028301
O       5.67274      9.61901      0.51293         0.260368      0.044740      0.924937
O       5.61926      9.56754     13.63536         0.464092      0.296709     -0.436763
O       5.67904      9.47803      4.83662        -0.166860     -0.133794      0.166481
O       5.74554      9.71495      9.29950        -0.320940     -0.223031      0.981447
O       9.46605      1.76303      0.58912         0.237081      0.213270     -1.461589
O       9.70633      1.91489     13.76294        -0.283143      0.098065     -0.700751
O       9.58955     13.37929      0.60178        -0.067442      0.006192     -1.287292
O       9.55849     13.56736     13.47124        -0.120784     -0.354915     -0.775221
O       9.60969      1.82804      4.90266         0.094344     -0.017226     -0.019325
O       9.65716     13.46872      4.86558        -0.274167     -0.417876      1.294599
O       9.65039      1.89640      9.17211        -0.310962      0.347271     -0.009506
O       9.32298     13.53153      9.25361         1.077465     -0.472550      0.311290
O       9.68579      5.70672      0.46105        -0.605918     -0.136858      0.474009
O       9.52600      5.74979     13.74285         0.113983     -0.503253     -0.506971
O       9.65619      5.71361      4.83600        -0.176570      0.329018     -0.672425
O       9.44722      5.58298      9.15776         0.597312      0.480021      2.261487
O       9.53726      9.53317      0.56141        -0.098347      0.161375     -1.188891
O       9.55607      9.44043     13.61191        -0.230588      0.475180     -0.728542
O       9.48060      9.50020      4.96285         0.271230      0.118866     -1.068089
O       9.55423      9.49204      9.25907         0.446000      0.079495      0.557283
O       3.85431      1.91960      2.76950         0.044151     -0.096956     -0.210228
O       3.77925      2.06206     15.73482        -0.062780     -1.011697      0.703442
O       3.79365     13.23357      2.62920         0.167495      0.740979     -0.112508
O       3.90651     13.47773     15.85167        -2.171178     -0.930184     -0.179879
O       0.09602      1.91919      2.80543        -1.069751      0.066134     -0.232261
O      15.27968      1.84099     15.71862         0.864767     -0.428918      0.298407
O      15.30251     13.39858      2.74715         0.571453      0.382891     -0.024200
O      15.29421     13.42459     15.77918         0.022642      0.375472     -0.128130
O       3.84652      1.93268      7.11667        -1.073143     -0.099794      0.049818
O       3.81660     13.43698      6.99941        -0.396134     -0.250412      0.120722
O      15.27587      1.92363      7.05192        -0.196761     -0.468796      0.243381
O      15.32733     13.52027      7.02918         0.128246     -0.467890      0.578055
O       3.83197      1.83742     11.37522        -0.514185      0.165293     -0.014990
O       3.71283     13.41168     11.37187         0.761737     -0.251608      0.122423
O       0.05526      1.86392     11.39397        -1.009845      0.266803      0.551939
O      15.32142     13.33585     11.21064        -0.026667      0.624773      0.888782
O       3.87802      5.61891      2.76023        -1.791167      0.584940      0.220279
O       3.76910      5.77052     15.77008        -0.177173      0.399950      0.600700
O       0.09988      5.81993      2.76009        -1.036435     -0.501799      0.160749
O      15.32644      5.80390     15.66821         0.215330     -0.420133      0.380891
O       3.85103      5.75668      7.06839        -0.834707     -0.277450      0.219086
O      15.33752      5.74193      6.90620        -0.863373      0.090745      0.628605
O       3.83201      5.82691     11.46946        -0.285341     -0.368881     -0.466922
O      15.24296      5.54823     11.38903         0.823883      0.699572      0.401762
O       3.75076      9.71682      2.69523        -0.063697     -0.132059      0.078469
O       3.82319      9.58634     15.81260        -0.557192      0.258960     -0.109512
O      15.27280      9.51427      2.60125         0.277696      0.070159      0.688597
O      15.26905      9.71274     15.82611        -0.500812     -0.466269     -0.136304
O       3.78225      9.55755      7.11931         0.209584      0.062116     -0.319056
O      15.33374      9.52114      6.99373        -0.969385     -0.004047      0.600070
O       3.73413      9.61540     11.51291         1.327021     -0.240495      0.010968
O      15.31777      9.47050     11.38135        -1.019266      0.549652      0.146791
O       7.68254      1.89488      2.69957        -1.213438     -0.195477      0.189767
O       7.56479      1.90080     15.75707         0.902391      0.179642      0.277032
O       7.68648     13.34013      2.79252        -0.627954      0.658454     -0.084031
O       7.68763     13.50564     15.74926        -0.617181     -0.390857     -0.163010
O       7.63337      1.80394      6.97075         0.601151      0.217172      0.570409
O       7.62695     13.38531      7.10814        -0.183900      0.532890     -0.741222
O       7.64925      2.12340     11.30044        -0.088238     -0.563775      0.288109
O       7.55404     13.35550     11.36286         0.760600      0.201851      0.642836
O       7.57374      5.69810      2.67254         1.170955      0.202269     -0.040456
O       7.63983      5.65011     15.93480         0.049504      0.252728     -0.201532
O       7.65539      5.86865      6.90970        -0.424157     -0.162175      0.671614
O       7.61790      5.66600     11.43837         0.974183     -0.696732      0.285576
O       7.60803      9.45173      2.79456        -0.387903      0.312218     -0.431021
O       7.60666      9.57143     15.77900         0.276113      0.085608      0.089516
O       7.55615      9.67387      7.04891         0.829556     -0.602999     -0.085353
O       7.68710      9.71494     11.44879        -0.478339     -0.556533      0.266825
O      11.47170      1.90815      2.68497         0.959232     -0.083347      0.239438
O      11.60827      1.94990     15.99450        -1.333853      0.474809     -0.478631
O      11.53025     13.40666      2.60791         0.117501     -0.072273      0.702319
O      11.39191     13.48948     15.67348        -0.017591     -0.719100      0.533809
O      11.45733      1.85371      7.18186         0.157522      0.711505     -0.326334
O      11.49779     13.34891      7.06202        -0.357375     -0.105119      0.350832
O      11.55707      1.73877     11.32950        -0.543173      0.336124      0.279103
O      11.47356     13.69525     11.24576        -0.420302     -0.554611      0.154996
O      11.44792      5.78234      2.58271         0.572155     -0.744351      0.482276
O      11.58461      5.77958     15.84035        -0.638790     -0.340509     -0.073180
O      11.40994      5.77670      7.03579         1.430688     -0.123718      0.349260
O      11.43360      5.65638     11.55868        -0.679289      0.636117     -0.594268
O      11.40154      9.59698      2.66532         0.854504      0.204822      0.348555
O      11.35051      9.48041     15.68895         1.616121      0.140963      0.559943
O      11.53473      9.60520      6.95728        -0.912995      0.082062      0.820684
O      11.44274      9.54207     11.50146        -0.188244     -0.211379     -0.094176
O       1.99826      3.83432      2.75734        -0.637590      0.061193      0.088083
O       1.91236      3.77796     15.61078        -0.986979      1.062583      0.791221
O       2.08141      0.03835      2.65127        -0.938623     -0.905274      0.249508
O       1.99080     15.34983     15.80830        -0.769047     -0.658028     -0.268039
O      13.43708      3.85654      2.70125         0.198938     -0.626725      0.205171
O      13.61101      3.85239     15.73434        -0.926270      0.282904      0.315099
O      13.56920     15.32055      2.82291        -0.881638      0.485072     -0.548265
O      13.20611      0.04256     15.58219         1.155035     -0.445241      1.083155
O       1.84383      3.79221      7.12003         0.069988      0.359197     -0.079598
O       1.95211     15.27907      7.06047        -0.305768      0.585561      0.286617
O      13.38672      3.84514      6.89110        -0.260610     -0.076280      1.166148
O      13.27055     15.34216      7.03527         0.637719      0.017557      0.097799
O       1.98474      3.75026     11.42508        -0.254940      0.562013      0.045702
O       1.96894      0.00439     11.38137        -1.052905     -1.692438     -0.008855
O      13.37762      3.73879     11.41356        -0.265643      0.321769      0.204724
O      13.51193     15.34885     11.44373         0.422367     -0.593621      0.223750
O       1.95244      7.69327      2.59755         0.162552     -0.004748      0.702933
O       1.73772      7.67332     15.82232         0.477949      0.050064      0.050771
O      13.42386      7.63307      2.70897        -0.139469      0.280962      0.395980
O      13.49634      7.63540     15.77858        -0.473973      0.979073     -0.122624
O       1.90762      7.62984      7.13107        -0.312676     -0.166227     -0.241226
O      13.40376      7.65628      6.86700        -0.131346     -0.017123      0.691719
O       1.83658      7.60752     11.42642        -0.061050     -0.339745      0.209539
O      13.31815      7.65873     11.59392         0.031572     -0.663463     -0.466136
O       1.78041     11.54824      2.57811        -0.119686     -0.889485      0.857055
O       1.90323     11.54136     15.80378        -0.085029      0.045227      0.147603
O      13.49202     11.51981      2.52816        -0.461777     -0.753464      0.606998
O      13.31990     11.47481     15.66191        -0.491020      0.126420      0.339548
O       1.86389     11.41728      7.06929        -0.305191      0.949873      0.316429
O      13.48166     11.50200      6.88132         0.027729     -0.694925      1.206125
O       1.82165     11.45988     11.25581        -0.114205     -0.110589      0.751945
O      13.26412     11.61620     11.40118        -0.073048     -0.811350      0.125354
O       5.70236      3.80241      2.77062         0.497124     -0.630989     -0.544305
O       5.58359      3.89240     15.75927         0.891110     -0.661641      0.559372
O       5.80634     15.32800      2.68746        -0.439425     -0.248789     -0.045816
O       5.57658     15.31211     15.78860         0.876726      1.257151      0.345341
O       5.81782      3.79996      6.95342        -0.074618     -0.062495      0.642070
O       5.65147     15.32859      7.02001         0.307348     -1.076509      0.153265
O       5.57418      3.75645     11.27722         0.254561      0.890360      0.476465
O       5.69066      0.07445     11.34532         0.557573     -1.976195      0.196187
O       5.53295      7.63897      2.69959         0.435360      0.571619     -0.106670
O       5.67386      7.69052     15.85404         0.537641      0.364542     -0.079905
O       5.71721      7.68707      7.26725         0.216980     -0.024572     -0.813618
O       5.82773      7.62345     11.33605        -0.243513      0.977001      0.416218
O       5.82154     11.49679      2.75936        -0.225033     -0.702753     -0.044881
O       5.76232     11.58496     15.83566         0.081545     -0.801093     -0.554358
O       5.66327     11.54715      6.94240         0.026190     -0.563561      0.370165
O       5.69696     11.48952     11.51132        -0.370261      0.206034      0.248555
O       9.48482      3.73549      2.72764         0.703701      1.357033     -0.296700
O       9.57678      3.79241     15.91576         0.025213     -0.010411     -0.007715
O       9.61222     15.31602      2.72873        -0.030338     -0.152281      0.191397
O       9.53323     15.30546     15.76226         0.277119      0.719268      0.300172
O       9.47355      3.88330      6.85755         0.456408     -1.414919      0.884852
O       9.48475     15.32875      7.08479         0.556253     -0.586581      0.141381
O       9.70195      3.73491     11.42850        -0.233184      1.578000      0.319413
O       9.36763      0.08607     11.32980         0.215019     -1.224059      0.271065
O       9.56268      7.61933      2.70603        -0.237212     -0.248256     -0.019923
O       9.43745      7.59261     15.73478         0.401036      0.782501      0.517094
O       9.53256      7.64188      7.09902         0.274317      1.178297      0.018140
O       9.34100      7.58244     11.54349         1.559186      0.225205     -1.033876
O       9.44437     11.48832      2.63905         0.586589     -0.748420      0.426869
O       9.54255     11.49630     15.67744         0.045854     -0.003972     -0.002536
O       9.54193     11.48582      7.09975         0.312582     -0.277665      0.036595
O       9.63674     11.47990     11.42445         0.295859      0.888396     -0.032190
