  # total energy = -7868.27142199 
CRSYTAL
PRIMVEC
    15.010000000000000    0.0000000000000000    0.0000000000000000
     0.0000000000000000   15.010000000000000    0.0000000000000000
     0.0000000000000000    0.0000000000000000    16.400000000000000
PRESSURE
17.9927 18.0099 7.35217 0.143557 -0.074741 -0.008483
PRIMCOORD
320 1
Pb       3.97741      3.68468      4.29961        -1.179228      0.196221     -0.819185
Pb       3.81987      3.77705      0.10667        -0.284073     -0.254698     -0.467792
Pb       3.70044      0.12717      4.12938         0.229666     -0.637056     -0.226322
Pb       3.81123      0.02174     16.35951        -0.500794     -0.178595     -0.129265
Pb      14.92246      3.63527      4.08595         0.514761      0.870271     -0.462172
Pb       0.00888      3.65991     16.34416         0.079683      0.454978      0.149245
Pb      14.94712      0.05261      4.21341         0.387033     -0.497773     -0.921523
Pb      14.89580     14.98750      0.04446         0.558840      0.461184     -0.388727
Pb       3.80233      3.63975      8.29675        -0.226476      0.737174     -0.297532
Pb       3.83788     14.92732      8.27902        -0.358259     -0.082099     -0.321242
Pb       0.02330      3.74555      8.28303         0.402530      0.316610     -0.191591
Pb      14.93697     14.89423      8.15841         0.746600      0.447406      0.249630
Pb       3.83020      3.70942     12.22924        -0.826930      0.570739     -0.093682
Pb       3.75065      0.01281     12.44889        -0.260060      0.084871     -0.725230
Pb       0.00620      3.67956     12.31931         0.448048      0.213929     -0.296753
Pb       0.01166      0.01280     12.28834         0.292050      0.081670     -0.115650
Pb       3.57033      7.57091      4.07575         0.363182     -0.571142      0.123294
Pb       3.77359      7.41687      0.19519        -0.123580      0.571952     -0.655986
Pb      14.93455      7.49218      4.10545         0.063773     -0.268524     -0.066288
Pb      14.96727      7.51385      0.07629        -0.046863      0.096171     -0.470519
Pb       3.70021      7.58567      8.06452         0.054147     -0.896898      0.331488
Pb      15.00180      7.54417      8.20161         0.243896     -0.676160      0.146871
Pb       3.76339      7.57220     12.29724        -0.247589     -0.468428     -0.291654
Pb       0.03782      7.34763     12.31418         0.031596      0.311490     -0.242335
Pb       3.59604     11.20253      4.17828         0.411460      0.536308     -0.369855
Pb       3.74458     11.02967     16.31473        -0.274015      0.931519      0.275695
Pb      14.97419     11.19921      4.09750        -0.130642      0.443016     -0.167565
Pb      14.94210     11.37573      0.07513         0.041729     -0.563222     -0.610958
Pb       3.68468     11.08634      8.23752         0.105364      0.653768     -0.536441
Pb      14.98532     11.15059      8.15082         0.141241      0.384790      0.147886
Pb       3.76759     11.28619     12.35301        -0.386970     -0.160880     -0.449658
Pb       0.00816     11.27867     12.32701         0.098009      0.037665     -0.418050
Pb       7.49663      3.71066      4.14086         0.212422     -0.088236     -0.231435
Pb       7.50606      3.84772     16.35913         0.317393     -0.503425      0.205998
Pb       7.47054     14.86575      4.21470        -0.060546      0.918257     -0.242630
Pb       7.32688     14.99375     16.37883         0.785134      0.043443     -0.091317
Pb       7.50803      3.65872      8.23734        -0.094588      0.343684     -0.584340
Pb       7.50093      0.00116      8.27243         0.042491     -0.148287     -0.524858
Pb       7.44469      3.71990     12.27170         0.399845      0.291356     -0.360353
Pb       7.57427     14.85356     12.39864        -0.096666      0.732719     -0.445915
Pb       7.29586      7.51939      3.99756         0.814282      0.057900      0.532416
Pb       7.46192      7.43317      0.03471         0.525045      0.791919      0.047644
Pb       7.48271      7.49212      8.35879         0.192601     -0.030660     -1.202378
Pb       7.56855      7.43840     12.47759        -0.490419      0.016751     -0.850397
Pb       7.47580     11.32959      4.07437         0.015961     -0.165709      0.149871
Pb       7.52638     11.26717      0.06750         0.029470     -0.190028     -0.420623
Pb       7.43934     11.20454      8.23032         0.362391      0.064915     -0.289062
Pb       7.53971     11.17499     12.33070        -0.089485      0.311141      0.088138
Pb      11.16661      3.75143      4.12598         0.272219     -0.033370     -0.112399
Pb      11.32277      3.82343     16.37464        -0.494860     -0.380026     -0.137920
Pb      11.42256     14.95878      4.21703        -0.822038      0.582753     -0.512586
Pb      11.09930     14.88632      0.08379         0.281506      0.763851     -0.070635
Pb      11.44227      3.75090      8.12399        -1.161006      0.023541      0.316816
Pb      11.33407     14.88080      8.23528        -0.665590      0.614349     -0.307173
Pb      11.33532      3.70418     12.19817        -0.352626      0.105807      0.124881
Pb      11.30608      0.11997     12.28559        -0.789378     -0.433247     -0.160487
Pb      11.23142      7.45777      4.16846        -0.105893      0.089767     -0.256627
Pb      11.12765      7.44368      0.10970         0.268993      0.498364     -0.378540
Pb      11.09498      7.43683      8.18467         0.382121      0.481041     -0.042016
Pb      11.28222      7.33117     12.28970         0.372541      0.776972     -0.250708
Pb      11.30179     11.27243      4.14712        -0.259105      0.206976     -0.352064
Pb      11.21153     11.15307      0.04265        -0.009927      0.328496      0.006132
Pb      11.10044     11.19823      8.28244         0.221114      0.039745     -0.357526
Pb      11.19091     11.30781     12.25294         0.077553     -0.191474      0.043828
Ti       1.93825      1.90708      2.11973        -0.837881     -0.322240     -0.375682
Ti       1.93362      1.92040     14.50892        -0.300683     -0.416613     -1.301460
Ti       1.83233     13.16856      2.05353        -0.273519     -0.152501     -0.089418
Ti       1.81519     13.15324     14.35446         0.074870      0.079471      0.768698
Ti      13.06611      1.88954      2.05953         0.002527     -0.474905     -0.098309
Ti      13.11882      1.83840     14.37729         0.344509      0.187504      0.154522
Ti      13.14830     13.16010      2.06559        -0.842900     -0.189105      1.081454
Ti      13.04800     13.12149     14.34491         0.098871      0.164395      0.828911
Ti       1.81973      1.89936      6.22731         0.887803      0.115759      0.202501
Ti       1.92622     13.13498      6.18817        -0.778046      0.241862      0.055967
Ti      13.16040      1.98167      6.19849        -0.775194     -1.401896     -0.083606
Ti      13.15169     13.11268      6.23328        -0.908495      0.001975     -0.343059
Ti       1.84614      1.88257     10.25491         0.434205     -0.461979      1.304136
Ti       1.81782     13.14445     10.24486         0.131448      0.116936      0.086018
Ti      13.07245      1.82982     10.25330         0.532488      0.610148      0.625867
Ti      13.06003     13.08371     10.24424         0.340098      0.121978      0.786231
Ti       1.88434      5.60428      2.05796        -0.581660      0.326734      0.931186
Ti       1.93588      5.68993     14.42211        -1.167779     -0.977275     -0.703192
Ti      13.15238      5.62892      2.15144        -0.395140     -0.038968      0.282871
Ti      13.15201      5.67510     14.46092         0.002601      0.027548     -0.071226
Ti       1.87466      5.58488      6.09611         0.082598      0.346080     -0.279364
Ti      13.12941      5.68530      6.22270         0.590898     -0.519201     -1.158816
Ti       1.92950      5.63658     10.28287        -0.058231      0.025411     -0.230243
Ti      13.14377      5.63835     10.24179         0.844849      0.215970      0.787180
Ti       1.76462      9.40208      2.03449         0.146139     -0.693360      0.614574
Ti       1.84792      9.40614     14.32139         0.315783     -0.927329      0.317638
Ti      13.02313      9.38478      2.19419         0.190129     -0.332712     -0.807729
Ti      13.15613      9.38286     14.35654        -0.318511      0.079316     -0.094486
Ti       1.83335      9.36574      6.13315         0.136321     -0.022442      0.509375
Ti      13.05484      9.35942      6.31769         0.758075      0.124359     -0.985850
Ti       1.87812      9.38390     10.24761        -0.378471     -0.576124      0.515295
Ti      13.15091      9.38858     10.29099        -0.455107     -0.669659      0.128046
Ti       5.65593      1.83275      2.00191        -0.451665      0.191871      0.269757
Ti       5.64546      1.96335     14.28224        -0.059376     -0.545416      0.908326
Ti       5.48443     13.09469      2.13215         0.549721      1.274461     -0.075758
Ti       5.57357     13.11894     14.40610         0.321678      0.570754      0.980881
Ti       5.60914      1.86183      6.22548         1.439430     -1.012848     -0.526717
Ti       5.62232     13.06365      6.21371        -0.102495      0.640664     -0.375353
Ti       5.62061      1.79552     10.32992         0.054925      0.456310      0.446679
Ti       5.58149     13.06442     10.34331        -0.402179      1.124080     -0.115651
Ti       5.63482      5.61731      2.07631         0.161000      0.014442      0.134484
Ti       5.62333      5.71836     14.44344        -0.062077     -0.343641     -0.811351
Ti       5.57915      5.60175      6.18936         0.190234      0.660569      0.200763
Ti       5.62071      5.65053     10.17600         0.028199     -0.176550      0.485624
Ti       5.50998      9.42371      2.18980         0.775070     -0.057152     -0.401312
Ti       5.65666      9.45064     14.32955        -0.139546     -0.847636      0.301298
Ti       5.70057      9.34937      6.17503        -1.108801      0.155741     -0.044056
Ti       5.64516      9.31224     10.27718        -0.752824      0.004323      0.203657
Ti       9.35131      1.88802      2.16265        -0.219229     -0.427200      0.284233
Ti       9.37247      1.95335     14.35172         0.430219     -0.851272     -0.558176
Ti       9.35757     13.22874      2.16648         0.352497     -0.110195     -0.389236
Ti       9.33899     13.21193     14.46416         0.088400     -0.533248     -0.331955
Ti       9.40340      1.90320      6.21229        -0.542973     -0.567364      0.093868
Ti       9.41461     13.21974      6.18339        -0.425192     -1.102010     -0.105709
Ti       9.29558      1.88992     10.22924         1.099334     -0.847365      1.180943
Ti       9.27313     13.11026     10.24794         0.469031      1.201124     -0.027086
Ti       9.37881      5.66560      2.18005        -0.110605     -0.200566     -0.590111
Ti       9.37923      5.65330     14.32823         0.085955     -0.414562      0.704588
Ti       9.29834      5.64024      6.16517        -0.306907      0.493656      0.132011
Ti       9.37107      5.60103     10.18367        -0.112612     -0.313249      0.459254
Ti       9.29722      9.45329      2.20069        -0.339690     -0.209557     -0.802685
Ti       9.44658      9.40416     14.41516        -1.289166      0.414587      0.388550
Ti       9.36033      9.44089      6.16403        -0.938527     -0.720947     -0.259528
Ti       9.37826      9.34651     10.40154         0.584779     -0.145662     -0.882125
O       2.02046      1.91053      0.30118        -0.293754     -0.195769     -0.127584
O       1.84689      1.88992     12.63110         0.158890      0.031645      0.412222
O       1.64835     13.14566      0.18697         0.370778     -0.153364      1.134415
O       1.80334     13.11142     12.51615         0.200410     -0.014782      0.334286
O      13.07275      1.81500      0.22092         0.075486      0.368012      0.995549
O      13.07870      1.90234     12.46773         0.052006     -0.340011      1.338971
O      13.23674     13.24468      0.28957         0.159702     -0.380072     -0.729764
O      12.94826     13.12316     12.55817         0.085846     -0.192537     -0.552174
O       1.82935      1.90563      4.39728        -0.082677      0.075291      0.297521
O       1.79209     13.14037      4.36612         0.313376     -0.042894      0.592512
O      13.14410      1.93737      4.38090         0.303755     -0.096808     -0.143500
O      13.06826     13.15411      4.38296        -0.029948     -0.222025      0.567954
O       1.82980      1.87313      8.49021         0.220321      0.219789     -1.001749
O       1.84912     13.19226      8.40436        -0.170939     -0.091920      0.916789
O      13.01706      1.93242      8.43927         0.476046     -0.181608     -0.121609
O      13.09474     13.16291      8.43827         0.188751     -0.016719     -0.339269
O       1.74693      5.76335      0.24063         0.217601     -0.089154      0.175856
O       1.86437      5.56974     12.57115         0.107382      0.121709      0.517132
O      13.13501      5.67670      0.32930        -0.199382     -0.072164     -0.241358
O      13.13748      5.68458     12.63359        -0.299909     -0.165554     -0.150143
O       1.99644      5.56171      4.24918        -0.020329      0.042356      1.096917
O      13.08542      5.67516      4.39168         0.165089     -0.239917      0.378945
O       1.88293      5.67297      8.45852        -0.096642     -0.200504      0.566590
O      13.14956      5.67326      8.44837         0.019387     -0.498510     -0.404455
O       1.91484      9.31674      0.24213        -0.235222      0.088303     -0.026118
O       1.90065      9.49003     12.51477        -0.418353     -0.155065     -0.478118
O      12.96528      9.38207      0.37735         0.294750     -0.095663      0.338520
O      13.09957      9.33634     12.51528         0.278973      0.499867      1.293452
O       1.75337      9.40212      4.32090         0.101930      0.041125      0.423732
O      13.16372      9.37788      4.43989        -0.282152      0.105394      0.590178
O       1.89742      9.25678      8.40251         0.071339      0.610097      0.296838
O      13.01672      9.38549      8.45794         0.294130     -0.153739     -0.088759
O       5.55912      1.80997      0.13561         0.203354      0.329330      1.210212
O       5.54806      1.90036     12.45951         0.262831      0.293878      0.589648
O       5.52368     13.17425      0.29715         0.486547     -0.157977      0.395320
O       5.55777     13.09071     12.64529        -0.027989     -0.126931     -1.541658
O       5.68397      1.94049      4.32376        -0.198590     -0.022565      1.263431
O       5.49149     13.08313      4.40694         0.300955      0.224706      0.064050
O       5.60162      1.73014      8.50675         0.030213      0.388588     -0.806787
O       5.64065     13.19627      8.51931        -0.059805     -0.093958     -0.183567
O       5.70109      5.73525      0.18066         0.006740     -0.256300      0.993736
O       5.71925      5.72236     12.60148        -0.174776     -0.337970      0.666043
O       5.50914      5.51412      4.30186         0.346362      0.345681      0.276224
O       5.53922      5.65713      8.38076         0.223989      0.139121      0.425917
O       5.51898      9.42125      0.38744        -0.076926      0.195497     -0.915564
O       5.59029      9.42111     12.50443        -0.016931      0.099796      0.618597
O       5.64731      9.38561      4.34793        -0.168667      0.245801      0.364483
O       5.58047      9.29831      8.40705         0.085400      0.326662      1.068816
O       9.33944      1.93037      0.40792         0.170899      0.064317     -1.802062
O       9.36125      1.86088     12.50335         0.272431      0.221493      1.120824
O       9.19748     13.25988      0.30950         0.204785     -0.280914      0.214289
O       9.37439     13.16248     12.60050         0.077942     -0.076998      0.254068
O       9.25712      1.93189      4.42761         0.022386     -0.278425     -0.129437
O       9.54117     13.17305      4.34304        -0.279878      0.134860      0.641527
O       9.36036      1.88620      8.46162         0.014261      0.046576     -1.038701
O       9.23354     13.11517      8.40018         0.236072     -0.008997      1.155202
O       9.30971      5.60646      0.26610         0.275014     -0.055016      1.256535
O       9.26735      5.57590     12.52672         0.344001      0.248023     -0.248256
O       9.28955      5.73064      4.32588         0.111604     -0.201851      0.961321
O       9.36906      5.66558      8.34466        -0.027452     -0.282662      1.296238
O       9.37798      9.46110      0.31993        -0.023013      0.091657      0.329337
O       9.30628      9.42864     12.59328         0.457501      0.026248     -0.178037
O       9.20177      9.32110      4.33866         0.280035      0.439713      1.165292
O       9.34376      9.39056      8.51665         0.044736     -0.050826      0.894906
O       3.73720      1.95204      2.47272         1.044208      0.273800     -0.081069
O       3.81621      1.80952     14.64800        -0.618475      0.075120     -0.263336
O       3.65829     12.94880      2.42537        -0.293947      0.351479     -0.292205
O       3.73633     13.22672     14.67358        -1.220611     -0.189273     -0.172607
O       0.01677      1.86019      2.32840        -0.676037      0.065838      0.167840
O       0.00877      1.94999     14.69186        -0.585698      0.085077      0.018644
O      14.96160     13.29532      2.48594         0.889492     -0.384380     -0.329134
O      14.93381     13.03367     14.50469         0.266650      0.064891      0.173082
O       3.80726      2.10292      6.44689        -1.964950     -0.414886     -0.112294
O       3.70798     12.95769      6.50236         0.758229      0.127940      0.137143
O      14.99779      1.78891      6.56239        -0.166536      0.014086     -0.195381
O      14.96284     13.17512      6.49604         0.639886      0.466188     -0.058500
O       3.71958      1.88223     10.52944         0.053364      0.082026      0.137252
O       3.71309     13.12882     10.59350        -0.569324     -0.060974     -0.080780
O      15.00673      1.86690     10.55862        -1.368749      0.016860     -0.055164
O      14.91931     13.19031     10.58154         0.288941     -0.103679     -0.002464
O       3.79761      5.69245      2.08431        -1.124539     -0.214275      0.234436
O       3.73500      5.74852     14.75992         1.333520     -0.087918      0.005195
O      14.96075      5.66553      2.50410         0.637419     -0.213836     -0.493095
O      14.99128      5.65825     14.63669         0.069902     -0.240198      0.266857
O       3.74437      5.43759      6.47480        -0.405047     -0.009801     -0.137378
O       0.02681      5.80624      6.38575        -0.507274     -0.051855      0.161926
O       3.79406      5.57351     10.62183        -0.659206      0.143391     -0.012456
O       0.02113      5.60148     10.58263        -0.620495      0.177691     -0.046639
O       3.64862      9.39305      2.46327        -0.379599      0.441362     -0.153994
O       3.72034      9.38493     14.59127         0.973816     -0.152866      0.146730
O      14.92681      9.29401      2.37492        -0.103750     -0.024690     -0.193064
O       0.02027      9.37521     14.69667        -1.305533      0.343445     -0.002687
O       3.68925      9.51554      6.38003         1.098881      0.117857      0.185962
O       0.02746      9.23545      6.58705        -1.218068      0.287201     -0.338029
O       3.72337      9.36721     10.51249         0.728427      0.445985      0.089531
O      14.98319      9.23957     10.42048         0.453812      0.322568      0.297837
O       7.43437      1.72580      2.35850         0.184563      0.051688      0.039584
O       7.51517      2.01155     14.53088        -0.453349      0.195744      0.314210
O       7.50362     13.26477      2.53686        -1.478860     -0.299403     -0.481910
O       7.44194     13.11243     14.67164         0.342663     -0.229404      0.131894
O       7.52068      1.71360      6.55451        -0.837203      0.096401      0.026160
O       7.51495     13.32230      6.37329        -0.537856     -0.126318     -0.065531
O       7.49845      1.80735     10.57810        -1.121924      0.075139      0.018430
O       7.41011     13.13272     10.70332         1.111159      0.246021     -0.219039
O       7.50435      5.76167      2.43874        -0.592059     -0.290835     -0.579883
O       7.53491      5.54322     14.73694        -0.519588      0.297346     -0.490827
O       7.41119      5.73574      6.52612         0.759708     -0.028498     -0.257410
O       7.51836      5.73309     10.44782        -0.194857      0.064824     -0.056373
O       7.40793      9.37788      2.32155         0.346634      0.123775      0.272410
O       7.51082      9.57525     14.69476        -0.302235     -0.122660     -0.096925
O       7.46354      9.37984      6.59892         0.964001     -0.461815     -0.256529
O       7.46445      9.23142     10.70259         0.320366      0.361949     -0.688217
O      11.18698      1.91186      2.51676         1.627045      0.298955     -0.276151
O      11.32851      1.74784     14.65610        -1.892914      0.365702     -0.115080
O      11.26962     13.06811      2.16498        -0.103201      0.002252      0.486669
O      11.21318     13.19592     14.84097        -0.087765      0.321037     -0.292827
O      11.25689      2.05652      6.40152        -0.017927      0.190153      0.172746
O      11.26075     13.01449      6.53596         0.102437     -0.007315      0.099581
O      11.19074      1.94056     10.49735         0.465906      0.091702      0.354012
O      11.16875     13.00769     10.42810        -0.071019     -0.088911      0.200725
O      11.22687      5.61805      2.52322        -0.088207     -0.196586     -0.594992
O      11.19013      5.69716     14.72593         0.933306      0.210528     -0.023610
O      11.23993      5.57586      6.39227        -0.871148     -0.218866      0.281849
O      11.30990      5.53777     10.48969        -1.929889     -0.021369      0.326011
O      11.13615      9.45104      2.52191         1.423393      0.285257      0.028534
O      11.21964      9.32569     14.74520         0.966820      0.212591     -0.313755
O      11.21899      9.44275      6.50305        -0.673210      0.117418     -0.284840
O      11.27781      9.43028     10.62341        -1.426604      0.313932     -0.049439
O       1.91406      3.80213      2.25528        -0.435403     -0.629112      0.087037
O       1.93852      3.75161     14.81668        -0.001459      0.780839     -0.094974
O       1.95511     14.99894      2.39110         0.045671      0.190736     -0.081815
O       1.80784      0.04015     14.70048        -0.121406     -1.030477     -0.204563
O      13.11527      3.74672      2.37626        -0.081040     -0.220460     -0.046883
O      13.04642      3.79777     14.73494         0.096828     -0.720656     -0.251093
O      13.07459      0.01870      2.43645        -0.087001      0.471225     -0.002648
O      13.18305     14.97756     14.66135         0.270741      0.501814     -0.354952
O       1.66717      3.79873      6.54826         0.184521     -1.160602     -0.093490
O       1.96480      0.06369      6.50350         0.028563     -0.810710     -0.243614
O      13.24074      3.78548      6.42154         0.252441      0.666869      0.679880
O      12.97075      0.07985      6.40013         0.286708     -1.256431      0.337294
O       1.87492      3.75295     10.60991        -0.177138     -0.163946     -0.328551
O       1.72174     14.99657     10.60382         0.819931      0.084509     -0.158733
O      13.12094      3.72206     10.62307         0.265344      0.476395     -0.516751
O      12.94524     14.97663     10.52127         0.346659      0.435834     -0.013383
O       1.78671      7.49382      2.44818         0.501625      0.373059     -0.381354
O       1.85580      7.50216     14.51878        -0.281632      0.720747      0.207472
O      13.00396      7.47880      2.46772         0.016320      0.826207     -0.173560
O      13.12352      7.57147     14.75707        -0.104986     -0.546258     -0.096082
O       2.04315      7.47108      6.39209        -0.137659      0.496996     -0.419903
O      12.99854      7.47198      6.51283        -0.007935      1.515473      0.215569
O       1.86897      7.51997     10.58436         0.290992     -0.640133      0.291760
O      12.99957      7.50220     10.62152         0.351639     -0.775495     -0.284111
O       1.68049     11.23436      2.34052        -0.059972      0.612711     -0.080790
O       1.85278     11.25467     14.57707         0.254429      0.681445      0.382072
O      13.20581     11.27595      2.40169        -0.096681     -0.133958      0.078805
O      13.02920     11.26762     14.80463         0.100344     -0.549856     -0.520037
O       1.76610     11.27012      6.49277        -0.363952     -0.608265     -0.116537
O      13.17413     11.22241      6.53383         0.219922      0.464022     -0.256487
O       1.77662     11.23701     10.43905        -0.116179      0.609505      0.164148
O      13.20800     11.25388     10.49824        -0.206034     -0.071255      0.364639
O       5.72589      3.76585      2.15008        -0.202485     -0.353212      0.282108
O       5.54944      3.81572     14.65812        -0.003516     -0.180642     -0.111616
O       5.37891      0.00896      2.37227         0.302621     -0.445467     -0.025582
O       5.68082      0.02999     14.56545         0.050643      0.174358      0.026662
O       5.67744      3.72689      6.54646         0.745891     -0.064883     -0.195773
O       5.43224     14.96279      6.38915        -0.079778      0.832156      0.352068
O       5.62799      3.79239     10.45952         0.343991     -0.857196      0.314277
O       5.52382      0.02515     10.66621         0.218678     -1.539889     -0.047636
O       5.48336      7.53760      2.32346         0.489569     -0.465963      0.369874
O       5.79291      7.59273     14.70034        -0.310814     -0.175399     -0.270772
O       5.50708      7.50255      6.39091        -0.203917     -0.011274     -0.174805
O       5.49937      7.47352     10.64249         0.396596      0.715405     -0.488401
O       5.58494     11.31608      2.47829         0.451496     -1.045069     -0.171671
O       5.52521     11.25905     14.72190        -0.025883      0.154370      0.022199
O       5.76066     11.24736      6.51814        -0.394717     -0.197047      0.172068
O       5.64488     11.24818     10.52876        -0.115541     -1.065184      0.003156
O       9.30922      3.74761      2.51057        -0.370131      0.944170     -0.249512
O       9.46954      3.77164     14.57177         0.177863     -0.114870      0.566373
O       9.49621      0.03169      2.44900        -0.196432     -0.261817      0.197597
O       9.20123      0.07109     14.71102         0.438788     -0.007502      0.034240
O       9.15503      3.77831      6.41521         0.207049      0.111209      0.093630
O       9.53743     15.00065      6.49477         0.145629      1.064942      0.060147
O       9.21313      3.73313     10.49851         0.364135      1.329599      0.065316
O       9.37502     15.00590     10.56910        -0.001077     -0.918539     -0.235269
O       9.40757      7.56425      2.34781        -0.026282     -0.571094     -0.159350
O       9.28494      7.53244     14.68160        -0.288724     -0.069426     -0.186112
O       9.34688      7.54932      6.55770         0.238376     -0.162927     -0.364914
O       9.43227      7.48532     10.64028         0.242207     -0.499114     -0.395413
O       9.29745     11.34871      2.50261        -0.082176     -0.786258     -0.343388
O       9.42971     11.35104     14.70301        -0.017178     -0.949568      0.043494
O       9.24192     11.29851      6.47057         0.135503     -0.548441     -0.027772
O       9.27659     11.23778     10.54435        -0.230240      0.129596      0.289613
