  # total energy = -7863.74410334 
CRSYTAL
PRIMVEC
    15.010000000000000    0.0000000000000000    0.0000000000000000
     0.0000000000000000   15.010000000000000    0.0000000000000000
     0.0000000000000000    0.0000000000000000    16.400000000000000
PRESSURE
15.4781 15.3247 7.31278 -0.209983 -0.052309 0.055842
PRIMCOORD
320 1
Pb       3.93100      3.73608      4.39089        -0.295746      0.038170     -0.073803
Pb       3.81422      3.78667      0.17961         0.035027     -0.229300     -0.769761
Pb       3.63483      0.13740      4.13953         1.045867     -0.653787      0.063937
Pb       3.68689      0.02064     16.37061         0.335453     -0.148100      0.454389
Pb      15.00443      3.66037      4.03911        -0.127177      0.491029      0.595432
Pb       0.06785      3.76103     16.37310        -0.327900     -0.205726      0.234596
Pb       0.07278      0.01238      4.12101        -0.417900     -0.355709      0.509644
Pb      14.91018      0.01406      0.02690         0.034514      0.326784     -0.548227
Pb       3.82336      3.69442      8.33045         0.869542      0.370166     -0.535826
Pb       3.77788     14.79365      8.33674         0.456893      0.852944     -0.391705
Pb       0.18509      3.80176      8.32828        -1.146237     -0.473010     -1.163605
Pb       0.06152     14.89747      8.25733        -0.210912      0.391857     -0.285376
Pb       3.72698      3.77408     12.23592         0.558064      0.165361      0.240473
Pb       3.74847     14.98825     12.51187        -0.228197      0.336144     -0.560210
Pb       0.08730      3.71408     12.31797         0.020829      0.006483      0.189922
Pb       0.02959      0.02355     12.32361        -0.024888     -0.279740      0.274273
Pb       3.51847      7.50318      4.12217         0.633927     -0.216420      0.230456
Pb       3.70861      7.36519      0.26484         0.358017      0.521579     -0.714845
Pb      14.83858      7.46851      4.11141         0.584784     -0.002056     -0.043669
Pb      14.91441      7.54956      0.03480         0.187265      0.159346     -0.062791
Pb       3.70569      7.49540      8.10065         0.046093     -0.045143      0.316634
Pb      14.97142      7.47127      8.26574         0.274390      0.254707     -0.276567
Pb       3.74844      7.59199     12.31131        -0.017232     -0.734553     -0.010885
Pb       0.08028      7.34475     12.36638        -0.060401      0.995419     -0.432905
Pb       3.51497     11.35004      4.17200         0.709187     -0.253809     -0.220326
Pb       3.66253     11.12400     16.32140         0.646688      0.287117      0.196176
Pb      14.92309     11.29911      4.08722         0.015785     -0.105497      0.640341
Pb      14.86886     11.34535      0.02159         0.636500     -0.836747     -0.018825
Pb       3.65820     11.13223      8.33649         0.551327      0.094853     -1.009245
Pb      14.95380     11.14762      8.28791         0.000154      0.175971     -0.646494
Pb       3.69907     11.33675     12.37772         0.498577     -0.779980      0.185653
Pb      14.98988     11.29164     12.35080        -0.037014     -0.082858     -0.203148
Pb       7.59033      3.64345      4.21842        -0.899395     -0.252928      0.262858
Pb       7.58582      3.81797     16.39279        -0.856080     -0.272344      0.211075
Pb       7.49399     14.98053      4.25181        -0.338400      0.134992     -0.206422
Pb       7.39683      0.06410      0.03462        -0.064767      0.131315      0.396338
Pb       7.57609      3.67505      8.25091        -0.623881     -0.058081     -0.069098
Pb       7.56390     14.92092      8.32434         0.008027      0.117831     -0.057116
Pb       7.54792      3.71290     12.25550        -0.052355     -0.205478     -0.006518
Pb       7.59713     14.86296     12.48420         0.234910      0.632421     -0.867200
Pb       7.28870      7.56957      4.08141         0.329162     -0.486241      0.547724
Pb       7.51363      7.52992      0.10977        -0.483341     -0.474541     -0.053415
Pb       7.45897      7.52420      8.38947        -0.033247      0.170290     -1.050421
Pb       7.57259      7.39454     12.54042        -0.708245      0.301903     -1.046459
Pb       7.40009     11.36916      4.09285        -0.415339     -0.232725      0.038572
Pb       7.53012     11.27868      0.10182        -0.479440     -0.470072     -0.330790
Pb       7.36078     11.16339      8.34620         0.262316      0.339310     -0.104068
Pb       7.51550     11.12954     12.44050        -0.140305      0.434483     -0.695051
Pb      11.15503      3.72623      4.14753         0.718048      0.355004      0.219876
Pb      11.26890      3.77427     16.39269         0.122532      0.336080     -0.127191
Pb      11.31297      0.06247      4.23035        -0.306560     -0.519601      0.101064
Pb      11.06618     14.99867      0.14829         0.666439     -0.013756     -0.300248
Pb      11.37197      3.80536      8.15842        -0.112157     -0.304245     -0.183921
Pb      11.26314     14.87537      8.30720         0.063819      0.427667     -0.407775
Pb      11.35844      3.72765     12.25428        -0.683799      0.421183     -0.100482
Pb      11.30091      0.14473     12.30474        -0.061694     -0.732769     -0.357001
Pb      11.15298      7.44929      4.19396         0.540678      0.238752     -0.118267
Pb      11.12581      7.51263      0.14648         0.584334     -0.037252     -0.435011
Pb      11.10839      7.48170      8.20549         0.251865      0.058370      0.166383
Pb      11.37522      7.38075     12.30849        -0.017779      0.621252     -0.077815
Pb      11.23210     11.29531      4.18518         0.496652     -0.415070     -0.302599
Pb      11.23439     11.14371      0.06801        -0.092731      0.215723      0.433305
Pb      11.03782     11.09763      8.32370         0.375297      0.144559     -0.491711
Pb      11.23207     11.28009     12.27158         0.302441     -0.262755      0.165698
Ti       1.86963      1.86534      2.09089        -1.103998      0.512851     -0.900434
Ti       1.95018      1.93452     14.44402        -0.585273     -0.810636     -1.130585
Ti       1.88890     13.15028      1.96764        -0.432760     -0.853623      0.201387
Ti       1.87802     13.15872     14.38078        -0.756355      0.006161      0.635065
Ti      13.06992      1.92457      2.01058         1.032883     -0.259141     -0.590553
Ti      13.11139      1.94925     14.26534         1.021063     -1.781407      1.154313
Ti      13.11323     13.16507      2.04745        -0.918794     -0.269607      0.384352
Ti      13.07319     13.12774     14.43629         0.389995      1.427900     -1.290878
Ti       1.93038      1.88046      6.25239        -0.563347      0.327062      0.064105
Ti       1.88577     13.12840      6.20014        -0.913910     -0.327548     -0.437346
Ti      13.15136      1.87440      6.16009         0.860688      0.436936      1.041930
Ti      13.10141     13.08252      6.21042         0.636666     -0.463244     -0.425161
Ti       1.99990      1.87317     10.20944         0.074267     -1.242391      0.580808
Ti       2.00125     13.05295     10.25608        -1.612787      0.792306     -0.080853
Ti      13.25312      1.94009     10.24070        -0.790136     -1.749759     -1.005558
Ti      13.18634     13.12202     10.21058         0.163727      0.199268      0.274754
Ti       1.82824      5.62077      2.04775        -0.795012      0.017300      1.082625
Ti       1.92123      5.62061     14.29934        -0.003802     -0.260234      0.446358
Ti      13.09950      5.67423      2.02400         0.326346     -1.155530     -0.217175
Ti      13.18553      5.64125     14.36879        -0.078255      0.111592      0.400904
Ti       1.82597      5.61968      6.15762         0.447909     -0.017200     -0.433225
Ti      13.12032      5.66256      6.14356         0.643242     -1.875630     -0.657770
Ti       1.93095      5.59496     10.18003         1.236727      1.379230     -0.020502
Ti      13.17036      5.65637     10.17420        -0.289332      0.177118     -0.323133
Ti       1.88339      9.45986      2.05757        -0.579129     -0.487573     -0.158704
Ti       1.90504      9.32834     14.44481        -0.943546     -0.339586     -0.455001
Ti      13.14494      9.40208      2.08729        -0.193506      0.044975     -0.172986
Ti      13.10036      9.43575     14.22836         0.397986     -1.159687     -0.248020
Ti       1.77588      9.37907      6.10810         0.323943      0.045195      0.489388
Ti      13.05092      9.31341      6.18769        -0.087834      0.776552     -0.216351
Ti       1.90561      9.34517     10.28200        -1.873571     -0.994012     -0.254731
Ti      13.06592      9.37138     10.20481         0.739383      0.138323      0.610466
Ti       5.57053      1.89402      2.05606         0.683950     -1.317092     -0.069365
Ti       5.63859      1.87861     14.28236        -0.374659      1.119332      1.203586
Ti       5.56148     13.11848      1.93635         0.179111      0.419607      0.308724
Ti       5.68500     13.10559     14.38762        -0.147797     -0.751660      0.434425
Ti       5.69626      1.80792      6.32782         0.389923     -0.102973     -0.014035
Ti       5.62524     13.06815      6.24287        -0.085645      0.041719     -0.667884
Ti       5.70327      1.80117     10.41606         1.199763      1.062228     -1.595623
Ti       5.69186     13.18458     10.39541         0.758116     -1.632493     -0.567844
Ti       5.54555      5.58658      2.27139         0.177366      1.324022     -0.812020
Ti       5.60393      5.63493     14.38796        -0.944092     -1.115757     -0.683603
Ti       5.69795      5.67142      6.23854        -2.059856     -0.250578      0.471296
Ti       5.71359      5.67771     10.18207        -1.099510     -1.389975      0.093949
Ti       5.57221      9.36677      2.04322        -0.446370      0.455928      0.339773
Ti       5.64653      9.31205     14.31134        -0.992612      0.559449      0.342830
Ti       5.60339      9.39239      6.02683        -1.226055     -0.083457      1.406920
Ti       5.55768      9.33131     10.28227         0.841628      1.262618      0.628362
Ti       9.36040      1.92156      2.08856        -1.102678     -1.326780      0.046601
Ti       9.36942      1.87639     14.40185         0.207203      0.252721     -1.224640
Ti       9.33135     13.09714      2.11150         0.441630      0.483094     -0.138080
Ti       9.44029     13.10296     14.39189        -0.418453     -0.184717     -0.496908
Ti       9.47633      1.83764      6.21064        -0.457758     -0.994247      0.610808
Ti       9.34830     12.99340      6.16643         0.174210      1.662634      0.626395
Ti       9.48576      1.86692     10.19143        -1.247510     -0.446605      0.181085
Ti       9.46302     13.07423     10.31571        -1.583196      0.477281     -0.572799
Ti       9.30658      5.62450      2.10034         0.005191      0.002729      0.034588
Ti       9.38223      5.65760     14.31162        -0.012678     -1.134421      0.641352
Ti       9.29635      5.63069      6.08642         0.453640     -0.474022      0.481437
Ti       9.39080      5.62202     10.24852         0.924958     -0.632200     -0.237299
Ti       9.31329      9.33986      2.13362         0.188041      0.133498     -0.348165
Ti       9.41163      9.34991     14.34355         0.088471      0.210109      0.349389
Ti       9.27889      9.33796      6.10853         0.015816     -0.040875     -0.050954
Ti       9.32062      9.30745     10.35928         0.108253      0.090633     -0.334925
O       1.84158      1.84706      0.18934         0.007001     -0.061554      0.208464
O       2.08500      1.87069     12.51367        -0.500057     -0.184285     -0.144536
O       1.90040     13.04775      0.12165        -0.175552      0.210816      0.209029
O       1.79824     13.17315     12.52434         0.392774     -0.319899     -0.352372
O      13.20775      1.90411      0.12947        -0.294198     -0.125170      0.238213
O      13.13066      1.84160     12.42285         0.134477      0.261103     -0.426504
O      13.00843     13.09425      0.15817        -0.080790     -0.076951     -0.439856
O      13.21645     13.14991     12.57084        -0.171520     -0.405712     -0.682357
O       1.88542      1.85853      4.37908         0.259019      0.004620     -0.732564
O       1.68376     13.15748      4.29709         0.735498      0.061976      0.256787
O      13.02540      1.92524      4.33110        -0.151028     -0.309912     -1.197461
O      13.17404     13.02784      4.30177        -0.519475      0.657437     -0.125863
O       1.87586      1.81209      8.38570         0.348941      0.323015     -0.355417
O       1.94320     13.06078      8.35461        -0.263700      0.406121      0.330031
O      12.98669      1.89733      8.40286         0.655152     -0.233146      0.509587
O      13.12557     13.10260      8.36128         0.066386     -0.269170     -0.003555
O       1.83431      5.57767      0.21269         0.210738      0.160968     -0.350141
O       1.91059      5.58420     12.44905        -0.262187     -0.019376     -0.549178
O      13.19340      5.62248      0.08753        -0.065188     -0.031332     -0.029652
O      13.22079      5.57193     12.47836        -0.364517      0.377841     -0.388619
O       1.62620      5.66685      4.29177         0.720980     -0.163127      0.016041
O      13.21278      5.60147      4.22246        -0.699279     -0.055427      0.307102
O       1.80939      5.58389      8.28421         0.294184      0.077471      1.106165
O      13.10648      5.62964      8.30442         0.305112     -0.136095      0.682191
O       1.77054      9.50343      0.18395         0.148516     -0.443199     -0.041865
O       1.91503      9.27204     12.59762        -0.263606      0.346396     -1.208984
O      13.24236      9.39711      0.17600        -0.878587      0.056152      0.290161
O      12.95599      9.37311     12.31335         0.516163     -0.110120      1.867488
O       1.82755      9.29196      4.29491        -0.167737      0.339944     -0.248051
O      12.97899      9.29784      4.32039        -0.055960     -0.249352     -0.822945
O       1.96891      9.38764      8.42287        -0.678061     -0.063602     -0.186324
O      12.95743      9.35689      8.36109         0.373489      0.178236     -0.560375
O       5.59130      1.87825      0.17305        -0.107453      0.199215      0.924868
O       5.50666      1.80299     12.46831         0.507786     -0.046432     -0.882486
O       5.64898     13.02889      0.08358         0.207074      0.468048      0.237242
O       5.61016     13.27215     12.54621         0.150027     -0.561456     -0.787082
O       5.62573      1.84760      4.44253        -0.307990      0.125130     -0.688416
O       5.69762     12.98032      4.39461        -0.321752      0.429573     -0.508835
O       5.77143      1.85277      8.44191        -0.084903     -0.106958     -0.313499
O       5.69230     12.99766      8.48974        -0.285843      0.731333     -0.567157
O       5.42195      5.50328      0.33299         0.394235      0.654704     -0.352854
O       5.41836      5.59680     12.54696         1.260901      0.659546      0.061125
O       5.53028      5.76198      4.41434         0.396554     -0.687677     -1.567357
O       5.68569      5.61585      8.33919        -0.028537      0.118351      0.785103
O       5.52386      9.40829      0.24302         0.430521     -0.481753     -1.123250
O       5.53575      9.29067     12.45846         0.174991     -0.023327      0.598362
O       5.51940      9.31856      4.23592         0.520145      0.574804     -0.487905
O       5.58379      9.53407      8.46245        -0.011257     -0.636131      0.146239
O       9.27462      1.97771      0.24474         0.158126     -0.460716     -0.767190
O       9.33054      1.84414     12.53802         0.119232     -0.021917      0.872674
O       9.30219     13.00616      0.21516         0.328013      0.445015     -0.387828
O       9.36891     13.02393     12.50838        -0.268379      0.636418     -0.174255
O       9.47003      1.81466      4.35586        -0.010978      0.405502     -1.233130
O       9.39449     13.07603      4.30739        -0.298368     -0.232169     -0.948066
O       9.54120      1.78708      8.35760        -0.403390      0.293602     -0.183376
O       9.30051     13.12591      8.41324         0.455756     -0.304439      0.189525
O       9.26839      5.57948      0.22016         0.179260      0.301126      0.183646
O       9.28502      5.51499     12.49626         0.358687      0.573116     -0.402961
O       9.22061      5.55100      4.25424         0.641657      0.333533     -0.250425
O       9.30665      5.72110      8.42073         0.360969     -0.322930     -0.586377
O       9.24473      9.15966      0.15679         0.347024      0.820603      0.200764
O       9.43092      9.34304     12.50526        -0.295513     -0.260828     -0.560311
O       9.37180      9.30160      4.24056        -0.215698      0.069005     -0.105663
O       9.27381      9.29824      8.42652         0.340031     -0.172572      0.059429
O       3.63455      2.08288      2.35424         1.524838      0.276252      0.193116
O       3.80923      1.46558     14.58667        -0.879162      0.181387     -0.136456
O       3.73170     12.89938      2.22076        -0.178927     -0.415302      0.204204
O       3.78351     13.43907     14.53605        -1.371724     -0.324662     -0.118248
O      14.98557      1.55299      2.35066        -0.529396      0.223523     -0.265479
O       0.03507      2.21522     14.34428        -0.440505      0.197369      0.449511
O      14.93373     13.34089      2.09856         0.926125      0.090909      0.302076
O      14.95391     12.82107     14.57899         0.696863     -0.338110      0.124208
O       3.88977      2.17927      6.48415        -2.255458     -0.023037     -0.309062
O       3.69818     12.65216      6.25700         0.307476      0.940809      0.533840
O       0.03816      1.58010      6.34537        -0.626575     -0.405903      0.183438
O      14.96722     13.38222      6.38409         0.504392      0.239710      0.378316
O       3.85945      2.19120     10.29536        -1.132335     -0.189887      0.385805
O       3.81358     12.80259     10.42376        -0.877584      0.083841      0.345378
O       0.13858      1.58823     10.40024        -1.672505      0.069151      0.290659
O       0.02535     13.39698     10.40066         0.316595     -0.050068      0.085100
O       3.67292      5.43759      2.42852        -0.948842     -0.490727     -0.106085
O       3.66230      6.04047     14.55885         1.467611     -0.327518      0.362170
O      14.91946      5.92023      2.22216         1.206189      0.028628     -0.268282
O       0.02064      5.15397     14.40596        -0.619464      0.460502      0.311823
O       3.74261      5.41260      6.36011        -0.754346     -0.508922     -0.001397
O      14.97448      5.94912      6.34163        -0.325023      0.275899      0.208980
O       3.80473      5.34382     10.41051        -0.425724      0.023125     -0.388748
O       0.09145      5.90122     10.32125        -1.207048     -0.197116      0.446208
O       3.71797      9.66019      2.26106        -0.334977      0.269083     -0.029198
O       3.70057      9.02988     14.61240         0.882970     -0.267488      0.255147
O      14.99502      9.24646      2.23716        -0.658924     -0.606668      0.296588
O      14.95321      9.74099     14.46200        -0.668465     -0.177740      0.038825
O       3.67228      9.71130      6.28287         0.462349     -0.099257      0.188033
O      14.89902      8.97090      6.34273         0.926544     -0.040124      0.229691
O       3.70905      9.65659     10.47232         0.779049      0.309455      0.499271
O      14.94340      8.96756     10.36166         0.881985      0.635848      0.253755
O       7.40088      1.62943      2.38268         0.436276      0.270370     -0.281153
O       7.45384      2.22550     14.60398         0.364263     -0.452384     -0.213451
O       7.44474     13.41184      2.26357         0.543054     -0.070945      0.119788
O       7.52351     12.60149     14.45642        -0.212716      1.081827      0.225643
O       7.60975      1.64688      6.33426        -0.717015     -0.485624      0.356229
O       7.50206     13.52985      6.35803         0.147115     -0.797234      0.016543
O       7.60309      1.60173     10.50804        -1.046852     -0.034484      0.250264
O       7.51031     13.46916     10.48017         0.513308     -0.240518      0.339369
O       7.39769      5.96868      2.33601         0.684260     -0.631293     -0.499420
O       7.44179      5.19144     14.53051         0.323340      0.672152     -0.106057
O       7.46288      5.91863      6.35375         1.614253      0.340710      0.213503
O       7.59200      5.88564     10.36214        -1.558860      0.348845      0.910157
O       7.39621      8.84349      2.15634         0.851043      1.200691      0.282666
O       7.46128      9.69622     14.43020         0.401018     -0.228374      0.374876
O       7.41001      8.99933      6.36704         1.007247      0.287370     -0.204722
O       7.48563      8.95289     10.54774        -0.351455      0.387423     -0.090846
O      11.18452      2.18713      2.02998         0.991730      0.083543      0.724096
O      11.27649      1.41152     14.42058        -0.853099      0.916007      0.818269
O      11.24520     12.70871      2.10205        -1.509777      0.640993      0.510172
O      11.22443     13.60990     14.34924        -0.422615     -0.608239      1.090538
O      11.27913      2.17052      6.35031         0.302007      0.201615     -0.151002
O      11.25872     12.66043      6.31587        -0.530754      0.243442      0.242842
O      11.23789      2.12456     10.55115         1.850672      0.039314      0.001567
O      11.25920     12.77786     10.43299         0.471994      0.191030     -0.116335
O      11.24926      5.32556      2.09774        -1.000832     -0.089315      0.513012
O      11.19118      5.86768     14.59827         0.679010      0.330573     -0.155164
O      11.22493      5.27160      6.22525        -0.387029      0.121139      0.026004
O      11.33842      5.26877     10.30094        -0.459613      0.207525      0.855553
O      11.14946      9.67806      2.07801         0.419599     -0.505165      0.175376
O      11.19462      8.82779     14.51298         0.730365      0.877599      0.285596
O      11.18004      9.69681      6.30954        -0.909985     -0.335115      0.310930
O      11.20915      9.69548     10.41632        -0.392144     -0.107621     -0.104810
O       1.50760      3.74078      2.18047         0.290932     -0.065068      0.061644
O       2.30113      3.70193     14.54073        -0.218987      1.169679      0.366956
O       2.11288     14.94911      2.22968        -0.456161      0.731246      0.198094
O       1.44854      0.05294     14.58282         0.996995     -1.540839     -0.073715
O      13.44846      3.73067      2.11558        -0.423281      0.067835      0.351819
O      12.74517      3.74456     14.39935         0.131898      0.161103      0.518892
O      12.71052      0.00048      2.16764         0.406631     -0.080733      0.114189
O      13.50798     15.00470     14.49576        -0.303539      0.229883      0.268500
O       1.47396      3.73642      6.34890         0.971432      0.212545     -0.079209
O       2.17210      0.04521      6.29744         0.212159     -1.650714      0.564449
O      13.45775      3.72713      6.35330        -0.433355      0.260181      0.241766
O      12.78497     14.96239      6.32544         0.150151      0.025910     -0.021466
O       1.63623      3.73570     10.40361         0.401246     -0.107169     -0.009561
O       2.26829     14.93073     10.38224        -0.286485      0.638051      0.141906
O      13.43395      3.73776     10.41963         0.059107      0.433239      0.255140
O      12.79825     14.96999     10.37664         0.704584      0.467029      0.171791
O       2.08657      7.54444      2.21979        -0.370147     -0.385049     -0.276440
O       1.46702      7.39866     14.47065        -0.404147      1.077996      0.633856
O      12.83785      7.49113      2.19227        -0.191015      0.818953      0.155542
O      13.47225      7.53174     14.46223        -0.152482     -0.902572     -0.116613
O       2.18444      7.50840      6.40016        -0.941239      0.129566     -0.308258
O      12.65438      7.41501      6.35220         0.381708      0.893477     -0.102468
O       2.25360      7.49945     10.36450        -0.605368     -0.719861      0.436221
O      12.79365      7.50993     10.31171         0.065400     -1.384201      0.546729
O       1.61926     11.26574      2.40423         0.222587      0.934472     -0.481054
O       2.15690     11.19553     14.49367        -0.108854      1.416111     -0.209246
O      13.28839     11.24307      2.36108        -0.026237     -0.017533     -0.562908
O      12.63621     11.20328     14.47319         0.439857      0.560727      0.238000
O       1.47418     11.25470      6.33083         0.188629     -0.388981     -0.086570
O      13.49970     11.11839      6.25235        -0.482152      1.225920      0.558302
O       1.58101     11.20032     10.38194        -0.012521      0.778503      0.761057
O      13.47630     11.23267     10.40138        -0.321458      0.309091      0.179761
O       5.71559      3.76827      2.32615         0.171748     -0.785781      0.527652
O       5.20735      3.73598     14.41957         0.030795     -0.136145      0.820427
O       5.25306     15.00933      2.18084         0.392658      0.086570      0.158738
O       5.84761     14.99000     14.53047         0.998431     -0.146731      0.443304
O       5.92131      3.78013      6.42463         0.002475     -0.350280     -0.308329
O       5.27534     14.93377      6.26913         0.248882      0.252047      0.730494
O       5.91874      3.77266     10.34100         0.255264     -0.057408      0.667752
O       5.33225      0.01101     10.33282        -0.333887     -0.486116      0.543220
O       5.14649      7.51872      2.31965         0.678974     -0.397916     -0.352745
O       6.03841      7.47468     14.60399        -0.710397     -0.041836     -0.234615
O       5.28855      7.55643      6.45572         0.519278      0.124321     -0.379083
O       5.28537      7.49167     10.36564         0.318952      0.073152      0.189971
O       5.93528     11.28702      2.12854        -0.080661     -0.693698      0.562120
O       5.23082     11.18487     14.44938         0.180911      0.455233     -0.122316
O       5.97655     11.21779      6.39437        -0.075404     -0.182861     -0.191690
O       5.89349     11.27786     10.58892         0.036609     -0.777023      0.089918
O       9.06628      3.72543      2.35789         0.030802      1.022821     -0.054906
O       9.67773      3.73450     14.52168        -0.239529     -0.363602      0.372911
O       9.62924      0.03278      2.23718        -0.126142     -1.147090     -0.046345
O       8.87943     14.98561     14.63234         0.913229     -0.368959     -0.045954
O       9.09685      3.75846      6.30068         0.118202     -0.206691      0.163139
O       9.73428     14.90306      6.26757        -0.006877      0.667565      0.295503
O       9.11425      3.71600     10.48089         0.333492      0.570759     -0.178080
O       9.66649     14.98738     10.42715         0.076016     -0.542219      0.138401
O       9.67343      7.47034      2.29402        -0.331521     -0.642325     -0.184666
O       8.92283      7.49011     14.49418         0.392616     -0.778029      0.107931
O       9.64014      7.46861      6.29424         0.063739      0.227968     -0.037917
O       9.76826      7.45206     10.50206        -0.185187      0.043830      0.244720
O       8.93470     11.17456      2.20727         0.300153      0.536529      0.027082
O       9.78081     11.21110     14.40697        -0.229583      0.118906      0.957122
O       8.95025     11.18351      6.28298         0.138046      0.052020      0.366552
O       9.03915     11.17578     10.38294         0.242131      0.647539      0.518321
