  # total energy = -7880.28911061 
CRSYTAL
PRIMVEC
    15.3600000000000000    0.0000000000000000    0.0000000000000000
     0.0000000000000000   15.3600000000000000    0.0000000000000000
     0.0000000000000000    0.0000000000000000    17.440000000000000
PRESSURE
0.835774 0.959943 -4.84016 -0.359411 -0.304468 0.002255
PRIMCOORD
320 1
Pb       3.85638      3.83853      4.27432        -0.160992     -0.354321     -0.284482
Pb       3.76414      3.88845     17.39271         0.073283      0.229328      0.092145
Pb       3.87782     15.34953      4.26479        -0.243740     -0.150700     -0.004775
Pb       3.94941     15.32658      0.02664        -0.731968      0.275670     -0.005811
Pb      15.30521      3.91040      4.31284        -0.034936     -0.253319      0.102017
Pb      15.22026      3.71807     17.34962         0.223546      0.827063      0.509784
Pb      15.29902      0.00231      4.39142        -0.340473     -0.253068     -0.230475
Pb       0.16672      0.04785     17.37548        -0.527571     -0.552202      0.514343
Pb       3.97406      3.87249      8.60940        -0.396844     -0.129943      0.450556
Pb       3.80288     15.28992      8.67054         0.108906      0.133343      0.262317
Pb       0.15921      3.73611      8.70506        -0.368919      0.415435     -0.263427
Pb       0.12938     15.28969      8.62425        -0.845211      0.109524     -0.118011
Pb       3.91596      3.93626     13.10063        -0.682607     -0.342339     -0.162108
Pb       4.01619      0.04747     13.19905        -0.454670     -0.253420     -0.304482
Pb      15.28728      3.88784     12.94720         0.031486      0.165055      0.165330
Pb      15.32039     15.35798     13.04415        -0.120104     -0.149713      0.085938
Pb       3.77581      7.64788      4.34966         0.430984      0.236798     -0.029582
Pb       3.88949      7.76421     17.42800        -0.365743     -0.291389     -0.166599
Pb      15.18583      7.51910      4.31434         0.087539      0.066160      0.153198
Pb       0.19540      7.60653     17.43774        -0.653833      0.074843      0.332033
Pb       3.75937      7.64727      8.63549         0.100335     -0.148268      0.033117
Pb      15.30131      7.73075      8.63468         0.210138     -0.256195      0.358940
Pb       3.86840      7.78751     13.08893        -0.618206      0.153522     -0.338246
Pb      15.27042      7.73802     12.94342         0.331477     -0.337512     -0.033994
Pb       3.90405     11.41572      4.39990        -0.135496      0.420849     -0.185113
Pb       3.67983     11.49730      0.02361         0.434739     -0.103300     -0.288903
Pb      15.30316     11.36922      4.35759         0.033549      0.666461      0.012202
Pb       0.08247     11.40154      0.08911        -0.302243      0.311914     -0.115749
Pb       3.79612     11.46213      8.65449         0.080563      0.006525      0.220975
Pb       0.08539     11.64864      8.62918        -0.673075     -0.634685      0.154101
Pb       3.74426     11.57994     13.03677         0.225256     -0.585107     -0.029867
Pb      15.14991     11.45550     12.95180         0.978285     -0.054542      0.641308
Pb       7.57213      3.94655      4.23237         0.048028     -0.076348      0.288065
Pb       7.67467      3.80797     17.43424        -0.330397      0.331636     -0.157299
Pb       7.55201     15.29989      4.28704         0.443681     -0.131189      0.230909
Pb       7.82558     15.25552      0.02369         0.190420      0.154891     -0.209421
Pb       7.69333      3.83611      8.63979         0.011357     -0.500030      0.525080
Pb       7.70178      0.10423      8.70468        -0.253208     -0.369389      0.419835
Pb       7.54975      3.67981     13.00392        -0.032755      0.155766      0.059089
Pb       7.69841     15.12962     13.13950         0.020098      0.128213     -0.679259
Pb       7.64244      7.78916      4.39018         0.053827      0.014388     -0.267541
Pb       7.70825      7.56553     17.37236        -0.121963      0.363489      0.499409
Pb       7.68962      7.56081      8.74052         0.221823      0.264406     -0.626604
Pb       7.78787      7.65787     13.11902        -0.545607      0.034014     -0.217014
Pb       7.64543     11.48456      4.30939         0.020066      0.046827     -0.123634
Pb       7.67262     11.44117     17.32461         0.222784     -0.261005      0.629695
Pb       7.73470     11.49922      8.79847        -0.077029     -0.356830     -0.469281
Pb       7.56311     11.51525     13.06003        -0.016960      0.131690     -0.015929
Pb      11.57912      3.92709      4.35125        -0.489899     -0.344071      0.276708
Pb      11.34081      3.78890     17.37431         0.173004      0.138244     -0.091611
Pb      11.54723      0.11474      4.36380        -0.531962     -0.581768      0.340150
Pb      11.64843      0.06792     17.37377        -0.492422     -0.707005      0.855748
Pb      11.67267      3.67409      8.67646        -0.568115      0.277074      0.218747
Pb      11.51989      0.04466      8.68489         0.181658     -0.243381     -0.175406
Pb      11.42414      3.88813     12.88366         0.777983     -0.315399      0.653070
Pb      11.44445     15.32224     13.12990         0.086959     -0.028612     -0.371011
Pb      11.53747      7.65501      4.42505        -0.135250      0.113265     -0.342604
Pb      11.43146      7.71134     17.32775         0.584531     -0.334342      0.360676
Pb      11.50390      7.61951      8.67503        -0.365309      0.170624      0.150764
Pb      11.60890      7.65538     13.07361         0.154997      0.049797     -0.383469
Pb      11.40777     11.55987      4.34895         0.282813      0.308123     -0.082749
Pb      11.59834     11.55111     17.40901        -0.103176     -0.067457      0.044714
Pb      11.39207     11.53029      8.73179         0.478242     -0.239647     -0.217841
Pb      11.44715     11.59022     13.08960        -0.117364     -0.037026     -0.174838
Ti       1.76788      1.92472      2.36355         1.166915     -0.148293     -0.470436
Ti       1.81039      1.97359     15.39307         0.688291     -0.070418     -1.824292
Ti       1.82608     13.43505      2.44425         0.255795     -0.326195     -0.829798
Ti       1.90423     13.47136     15.37305        -0.610030     -0.152129     -1.089906
Ti      13.36252      1.91206      2.35629        -0.259327     -0.290022     -0.866429
Ti      13.33096      1.94093     15.37998        -1.025271     -0.374058     -1.909242
Ti      13.36374     13.40352      2.39245         0.131746      0.165046     -0.858120
Ti      13.49589     13.39190     15.42850        -0.511842      0.404998     -1.473925
Ti       1.89824      1.79725      6.51062        -1.154697      0.789744     -1.121480
Ti       1.94240     13.39957      6.51769        -0.554440     -1.189752     -1.258700
Ti      13.45920      1.89564      6.66138        -0.582071     -0.716586     -0.233706
Ti      13.35570     13.42606      6.66378        -0.614879     -0.056507     -0.215193
Ti       1.84431      1.85965     11.11560         0.825358      0.947064     -0.811278
Ti       1.89248     13.44769     11.15336        -0.266594     -0.290396     -0.479894
Ti      13.36284      1.82263     11.10620        -1.000336      0.189524     -2.140472
Ti      13.40046     13.39415     11.07815        -1.110187      0.021626     -1.765313
Ti       1.89515      5.73452      2.37407        -0.278923     -0.566497     -1.583824
Ti       1.80648      5.75385     15.38099         0.831456      0.583592      0.569401
Ti      13.29750      5.71152      2.15280         0.657001      0.307146     -0.369972
Ti      13.38936      5.76355     15.37975        -0.372378      0.150439     -1.062439
Ti       1.90192      5.63960      6.56727        -1.389670      0.137113     -1.002488
Ti      13.38431      5.71701      6.73861         0.556891     -0.141524      0.239866
Ti       1.95441      5.73521     11.02618        -0.930918      0.302355     -0.797496
Ti      13.40569      5.73382     10.98978         0.443037      0.065405     -1.676583
Ti       1.98741      9.54243      2.40015        -1.046350      0.661671     -1.320604
Ti       1.89479      9.63086     15.36587         0.690867     -0.821002     -1.241786
Ti      13.49368      9.51914      2.40576        -2.259429      0.165847     -1.304407
Ti      13.52508      9.56429     15.42674        -0.936466     -0.772655     -1.358207
Ti       1.92512      9.51464      6.67436        -0.442979      0.141129      0.186358
Ti      13.39607      9.58837      6.70186        -0.172404      0.024386     -0.638831
Ti       1.92822      9.60907     11.02079        -0.342146     -0.287177     -0.323700
Ti      13.34758      9.57689     10.99895         0.725477     -0.359371     -1.816646
Ti       5.70033      1.91588      2.27869        -0.170329     -0.046468     -0.192190
Ti       5.69862      1.88649     15.41825        -0.495991      0.948606      0.188555
Ti       5.69173     13.36047      2.23961        -0.916866      0.272176     -0.194841
Ti       5.67433     13.37190     15.54306         1.184520     -0.720931     -1.792852
Ti       5.62254      1.84637      6.62775         0.494146      0.316181     -0.973222
Ti       5.71948     13.42848      6.75600         0.062200     -0.298403     -1.494453
Ti       5.64208      1.84539     11.06828         0.655139     -0.458972     -0.524017
Ti       5.68679     13.35137     11.03415         0.563293     -0.046539     -1.170945
Ti       5.69264      5.79959      2.23462         0.556107     -0.051481     -1.347365
Ti       5.70347      5.80140     15.41245         0.312273     -0.871045      0.105896
Ti       5.70745      5.71731      6.59391         0.652109      0.719396     -0.159741
Ti       5.72290      5.73455     11.07794        -0.445111     -0.330513     -1.931171
Ti       5.76946      9.55605      2.33169         0.856374     -0.238898     -1.078875
Ti       5.80677      9.57861     15.36385        -1.090374      0.125324     -0.230490
Ti       5.80253      9.61339      6.78927         0.276596     -0.498724     -1.381728
Ti       5.77766      9.50555     10.97912        -2.055070      0.866777     -0.839290
Ti       9.47637      1.99512      2.46786         1.035600     -0.748386     -1.201048
Ti       9.53218      1.92427     15.27912         1.962384     -0.241826     -1.146956
Ti       9.52118     13.51450      2.33637         0.566900     -0.006111     -1.000295
Ti       9.61353     13.43536     15.43743        -0.099024     -0.786720     -0.773608
Ti       9.51865      1.85380      6.70154         0.668192      0.163118     -1.009686
Ti       9.46908     13.41712      6.71732         0.857408      0.048369     -1.772586
Ti       9.53092      1.88257     11.10099        -0.359626     -1.800595     -1.157023
Ti       9.54279     13.38192     10.99633         0.681714      0.200606      0.777702
Ti       9.56892      5.80174      2.32963        -0.154600      0.225826     -0.684776
Ti       9.57360      5.78756     15.27296         0.335716     -0.733988     -0.328872
Ti       9.51302      5.66872      6.74335         0.802310      0.556175      0.451417
Ti       9.50359      5.68192     11.08763         0.977871      0.874126     -2.275236
Ti       9.70224      9.66861      2.33879        -1.237705     -0.908629     -0.929487
Ti       9.63997      9.56340     15.38498         0.074935      0.629269     -0.729089
Ti       9.56606      9.58528      6.56862        -0.002287     -0.726544      0.572729
Ti       9.54309      9.53039     11.07305         0.822207      0.889741     -2.042721
O       1.93243      1.86136      0.55958        -0.571865      0.288026     -0.137569
O       1.66098      1.87995     13.56694         0.491871      0.163149      1.328905
O       1.89770     13.38258      0.55054        -0.135198      0.117699      1.119314
O       1.79031     13.46182     13.55657         0.247590      0.173313      0.950573
O      13.37277      1.86188      0.53188        -0.053308      0.325068      0.792857
O      13.13314      1.81692     13.53561         0.811777      0.385972      1.041235
O      13.44109     13.46531      0.56689        -0.088145     -0.455445      0.884560
O      13.45865     13.33346     13.56284         0.052355      0.245337      1.609455
O       1.62323      1.80697      4.70291         1.090935      0.163909      1.508327
O       1.91203     13.28453      4.70919         0.021554      0.370732      1.375322
O      13.43418      1.91726      4.86436        -0.005747     -0.167471     -0.037734
O      13.24604     13.48759      4.88618         0.141635     -0.311218      0.228708
O       1.93270      1.86872      9.29007        -0.334001      0.038217      0.656935
O       1.97210     13.42537      9.37524        -0.424829      0.115600     -0.203409
O      13.28014      1.80943      9.17027         0.386417      0.317204      1.746851
O      13.32579     13.16433      9.23673         0.350517      0.792389      1.314434
O       1.87418      5.74721      0.53078        -0.204830      0.053455      1.611167
O       1.82075      5.76755     13.63957         0.205987      0.068034     -0.218635
O      13.24008      5.70894      0.36805         0.277112     -0.127104      0.709332
O      13.41332      5.91822     13.52070        -0.125766     -0.509394      0.904549
O       1.76997      5.59983      4.71115         0.693457      0.818900      1.172827
O      13.38668      5.68121      4.92880        -0.317593      0.266602      0.600786
O       1.91071      5.63551      9.19207         0.166168     -0.178783      0.894381
O      13.56069      5.58863      9.15591        -0.426808      0.406821      0.776118
O       1.83705      9.42544      0.50705         0.383578      1.003525      1.943450
O       1.93138      9.53719     13.52000        -0.134927      0.213446      1.918879
O      13.46992      9.57154      0.61364        -0.047980      0.120148     -0.223705
O      13.40294      9.43575     13.54624         0.359447      0.278484      1.545296
O       1.98033      9.40514      4.90582        -0.118687      0.768381      0.071545
O      13.37512      9.28219      4.85987         0.082070      0.838604      1.295058
O       1.90835      9.55676      9.20990         0.341827      0.310049      0.188826
O      13.41133      9.72197      9.18851         0.039728     -0.537747      0.645503
O       5.87322      1.83853      0.48752        -0.578319      0.064788      0.125539
O       5.61479      2.02665     13.61858         0.523111     -0.395485      0.802011
O       5.50715     13.51807      0.41782         0.591249     -0.225426      0.560684
O       5.79115     13.20305     13.68169        -0.102653      0.688647      0.756336
O       5.43301      1.89742      4.82800         1.154900     -0.226378      1.053131
O       5.62521     13.45154      4.91702         0.277681     -0.307171      0.711055
O       5.63668      1.68002      9.30161        -0.175610      0.582505     -0.121713
O       5.74758     13.37820      9.20398        -0.422095      0.215791      1.185395
O       5.80180      5.67166      0.39622        -0.044097      0.562524      1.088626
O       5.85498      5.70059     13.58333        -0.667357     -0.055619      0.733717
O       5.84579      5.77360      4.78591        -0.584091      0.025663      1.154870
O       5.68411      5.61207      9.18553        -0.161161      0.311670      1.654360
O       5.83393      9.51557      0.54163        -0.309507     -0.053502      0.290732
O       5.75526      9.49349     13.57758        -0.118202      0.365915      0.530265
O       5.73267      9.56028      4.86233        -0.022738      0.147998      1.181692
O       5.76731      9.65911      9.13029         0.037584     -0.572932      1.033343
O       9.62846      2.11394      0.66134        -0.600436     -0.336762      0.154541
O       9.56355      1.71616     13.45443        -0.190762      0.496771      1.204604
O       9.60508     13.45322      0.49251        -0.472179     -0.063892      0.792482
O       9.53599     13.27972     13.58035        -0.121247      0.545020      1.485087
O       9.46311      1.71550      4.91405        -0.157177      0.700456      0.558230
O       9.40888     13.46170      4.84689         0.132270     -0.314197      1.264701
O       9.55650      1.79376      9.28582        -0.042662      0.166738      0.291267
O       9.65523     13.20051      9.23941        -0.656972      0.627022     -0.483287
O       9.61532      5.73812      0.51367        -0.164316     -0.070817      1.016605
O       9.53112      5.91910     13.47006        -0.026790     -0.334097     -0.276601
O       9.56184      5.60584      5.01153        -0.230167      0.050585     -1.016085
O       9.56745      5.79436      9.26295        -0.757837     -0.318474      0.978619
O       9.47368      9.63308      0.47618         0.768644     -0.084632      1.320739
O       9.68009      9.56460     13.54384        -0.511732     -0.345834      0.938968
O       9.52359      9.57476      4.75468         0.159091      0.246984      0.507709
O       9.46682      9.70859      9.18260        -0.150602     -0.701228      2.101456
O       3.71951      1.93842      2.81564         0.507284     -0.437593     -0.779650
O       3.77796      2.07569     15.72413         0.632562     -0.659529     -0.103133
O       3.75370     13.38826      2.73886         0.341197     -0.006464     -0.294138
O       3.81914     13.36237     15.68437        -1.311960      0.429514      0.427878
O      15.26803      1.98001      2.64893        -0.702021      0.205056     -0.132263
O      15.26351      1.97775     15.81012         0.070213     -0.288280     -0.209216
O      15.23623     13.32396      2.91399         0.242022     -0.191746     -0.633122
O      15.35081     13.46270     15.85531         0.345311      0.148194     -0.202120
O       3.74987      1.84605      7.02599         0.247545     -0.196352      0.054083
O       3.80029     13.44318      7.06189        -0.082617     -0.491288      0.071256
O      15.35361      1.74882      6.98878         0.879700      0.311708      0.537106
O      15.30922     13.36755      6.95769         0.711753      0.186872      0.238203
O       3.80647      1.72526     11.55950        -0.923319      0.840511     -0.087228
O       3.79268     13.38254     11.42577         0.015419      0.365018      0.374016
O      15.17808      1.92345     11.34904         1.334447      0.082277      0.309117
O      15.20829     13.44085     11.41768         1.427377     -0.028152      0.105213
O       3.86292      5.69583      2.53190        -1.990066      0.181598      0.762652
O       3.78225      5.78860     15.95038         0.586480     -0.102800     -1.199265
O      15.21658      5.66078      2.67993         0.521021      0.360839     -0.440222
O      15.32516      5.64141     15.84132        -0.588521      0.376521     -0.240859
O       3.79168      5.64002      7.03410         0.007977      0.540853     -0.452646
O      15.35441      5.71377      6.95611         0.182064     -0.252032      0.179309
O       3.77720      5.76950     11.44248         0.466776     -0.808438      0.293024
O      15.34017      5.70719     11.39614         0.381824      0.375598      0.041665
O       3.79985      9.56503      2.79456         0.030680      0.488657     -0.271136
O       3.81917      9.54575     15.85424        -0.084511      0.265137     -0.397992
O      15.23426      9.52891      2.78637         2.574835      0.176512      0.271433
O      15.35694      9.56658     15.89815         0.172281     -0.050965     -0.568846
O       3.86184      9.56799      7.10409        -0.733188      0.151377     -0.155113
O      15.35460      9.60396      7.10205        -0.212501     -0.130622     -0.391580
O       3.79855      9.72473     11.46950         0.338971     -0.453194     -0.127893
O      15.35089      9.46463     11.34357        -0.350924      0.568975      0.186523
O       7.59686      1.92928      2.70030        -1.080993     -0.054829      0.290822
O       7.80862      1.89511     15.69335        -2.547153      0.008066      0.443734
O       7.49530     13.42819      2.62007         1.028524      0.086203      0.077778
O       7.63968     13.49334     15.84081         0.148064     -0.265095      0.035157
O       7.60284      1.79550      7.17266        -0.086403      1.151716     -0.673922
O       7.59733     13.48850      7.01722         0.933070     -0.374311      0.470278
O       7.55491      1.94770     11.40469         0.246106     -0.259927      0.273872
O       7.59364     13.39641     11.47747         0.205288     -0.767536     -0.164660
O       7.52809      5.79247      2.59385         1.714927     -0.121602      0.463454
O       7.74484      5.80357     15.77425        -0.818088     -0.547085     -0.146394
O       7.60496      5.56442      7.16236        -0.386389      0.746721     -0.545658
O       7.57779      5.66744     11.32359         0.597738      0.092222      0.445512
O       7.66392      9.55095      2.76139        -0.143914     -0.135877     -0.001468
O       7.62871      9.62762     15.74659         0.990293     -0.263686     -0.240532
O       7.69182      9.55694      6.98934        -0.485670      0.172400      0.133325
O       7.50965      9.58388     11.43817         2.400153     -0.220439      0.056945
O      11.35923      1.79722      2.80430         1.428035      0.670139     -0.180373
O      11.43928      1.80205     15.94370         0.005014      0.957959     -0.872398
O      11.37396     13.55596      2.67638         0.974949     -0.604516      0.303949
O      11.56717     13.41008     15.75805        -0.370943     -0.666106      0.070884
O      11.50936      1.85796      6.96235        -0.210122     -0.169507      0.338858
O      11.42680     13.38379      7.10223         0.210921      0.197059     -0.255816
O      11.36760      1.72938     11.44482         1.155748      0.590829     -0.043344
O      11.46211     13.48363     11.52247         0.209267     -0.582233     -0.210119
O      11.48123      5.64370      2.71020        -0.947483      0.487070      0.030182
O      11.43247      5.83846     15.67482         0.442404      0.204478      0.049515
O      11.42894      5.82068      7.17569         1.116788     -0.482973     -0.516915
O      11.44681      5.77347     11.25440        -0.104698     -0.085858      0.685732
O      11.51786      9.53953      2.75251        -1.031021      0.035445     -0.015278
O      11.54978      9.57439     15.75295        -0.287721      0.055544      0.167605
O      11.42155      9.46391      7.02712         0.749672     -0.105901     -0.243487
O      11.48323      9.43597     11.27482        -0.541836      0.275684      0.360925
O       1.91311      3.83596      2.72078        -0.364978      0.342973     -0.224704
O       1.86811      3.87822     15.72819         0.003718     -0.770098      0.331516
O       1.71315     15.34855      2.65217         0.220759     -0.657837      0.054324
O       1.93458      0.03935     15.71141        -0.142198     -0.276868      0.310524
O      13.22999      3.82351      2.66654         0.561766     -0.562070     -0.170859
O      13.21856      3.84856     15.57320         0.548996     -0.593304      0.595218
O      13.48065     15.34220      2.78144        -0.437442      0.245096     -0.232073
O      13.31403      0.03763     15.72165         0.963593     -0.780139     -0.022015
O       1.83622      3.71809      6.75875         0.145974      0.138746      0.788525
O       1.94224     15.21859      6.89110        -0.407590      1.194184      0.513610
O      13.38887      3.76492      7.01011         0.219178      0.585054      0.196029
O      13.47758     15.32896      7.08171        -0.440572     -0.488667      0.069430
O       1.81763      3.81106     11.52478         0.576895     -0.040616     -0.385076
O       1.77543      0.05956     11.39690        -0.209995     -1.514324      0.486539
O      13.36516      3.87371     11.33257        -0.547453     -1.256194      0.619135
O      13.36812     15.32387     11.38932         0.077437     -0.049091      0.085095
O       1.89320      7.73219      2.77193        -0.180602     -1.789423     -0.121990
O       1.92527      7.73958     15.90111        -0.382629     -0.854164     -0.806025
O      13.32021      7.58328      2.71583         0.092697     -0.362127     -0.106388
O      13.42180      7.59458     15.72989         0.198012      1.452741      0.347737
O       1.87466      7.59983      6.99594         0.495134     -0.064373      0.132176
O      13.46766      7.63346      7.15108        -0.305890     -0.035501     -0.138395
O       2.04772      7.72926     11.34632        -0.422105     -1.124013      0.065967
O      13.41740      7.62457     11.28693         0.004311      0.251039      0.245125
O       1.83739     11.46786      2.77605        -0.132225     -0.752703     -0.345932
O       1.89263     11.51524     15.79290        -0.107254      0.028446      0.062024
O      13.22072     11.43868      2.72989         0.555597      1.038449      0.311015
O      13.52761     11.45691     15.74929        -0.300673      0.359258      0.285943
O       1.85382     11.49995      7.01561         0.768655     -0.039210     -0.144729
O      13.33189     11.46147      6.87770         0.203507     -0.325277     -0.033811
O       1.77750     11.55130     11.48236         0.150270      0.046073     -0.185185
O      13.40311     11.41417     11.50725        -0.571053      0.680460     -0.270165
O       5.65715      3.81658      2.63415         0.302694     -0.149799      0.101857
O       5.78506      3.88154     15.87271         0.161499     -0.939078     -0.570810
O       5.65437     15.33848      2.72157        -0.158114      0.127323     -0.510711
O       5.63733     15.34602     15.72470         0.148354      0.834389     -0.107437
O       5.65522      3.82658      6.87621         0.176420     -0.983753      0.491127
O       5.80629     15.35193      7.05240        -0.968403      0.064250     -0.009145
O       5.64637      3.79352     11.41438        -0.321176      0.118166      0.275491
O       5.72157     15.27727     11.56027         0.068347     -0.167909      0.083857
O       5.52105      7.69526      2.64071         0.674857     -0.720992      0.223869
O       5.81841      7.66463     15.69501        -0.317351     -0.095966      0.306163
O       5.74921      7.67061      7.08126        -0.070077     -1.057244     -0.157847
O       5.56672      7.61520     11.43914         0.729398      0.282536     -0.493709
O       5.77075     11.45550      2.46052        -0.681657      0.982910      0.864938
O       5.65300     11.48147     15.82718         0.414576     -0.151208      0.237306
O       5.81877     11.50330      7.05697        -0.526311      0.156050     -0.004344
O       5.69204     11.41068     11.36349         0.194645      1.316709      0.246895
O       9.47315      3.86685      2.80842         0.116134      0.487901      0.028460
O       9.74522      3.84777     15.48421        -0.607124     -0.504771      0.335417
O       9.45142     15.35405      2.68581        -0.699261     -0.038788     -0.046825
O       9.62720     15.26323     15.77818        -0.264237      0.923723     -0.154634
O       9.65055      3.77280      7.20246        -0.630582     -0.477630     -0.261589
O       9.60632     15.33322      7.10645        -0.367067     -0.399183      0.227119
O       9.62138      3.72314     11.39590        -0.633301      1.686695      0.177624
O       9.45348     15.22169     11.37869        -0.242964      0.694095      0.287132
O       9.59850      7.65317      2.73253        -0.117312     -0.316242     -0.131931
O       9.55648      7.64219     15.81640        -0.034196      1.300492     -0.371619
O       9.42758      7.61657      6.94497        -0.014117      0.120325      0.487293
O       9.46594      7.67810     11.27639        -0.467316     -0.479124      0.568735
O       9.53007     11.53355      2.68302         0.125987     -0.012040      0.204580
O       9.53081     11.45642     15.75628         0.392245      0.228672      0.109376
O       9.59228     11.45081      7.03526        -0.539852      0.654324     -0.401705
O       9.71598     11.49027     11.37753        -0.826987     -0.698353      0.406947
