  # total energy = -7863.36278916 
CRSYTAL
PRIMVEC
    15.010000000000000    0.0000000000000000    0.0000000000000000
     0.0000000000000000   15.010000000000000    0.0000000000000000
     0.0000000000000000    0.0000000000000000    16.400000000000000
PRESSURE
15.8381 15.9634 6.13505 -0.135784 -0.091662 -0.036005
PRIMCOORD
320 1
Pb       3.73706      3.63363      4.15900        -0.096721      0.360939      0.121878
Pb       3.62069      3.73839     16.37896         0.358046     -0.084223     -0.454041
Pb       3.77304     14.95113      4.16199        -0.362159      0.298051     -0.275998
Pb       3.86277     14.97300      0.09228        -0.646127     -0.122287     -0.648000
Pb      14.93583      3.83911      4.17176         0.491004     -0.990960      0.219347
Pb      14.88845      3.62521      0.11777         0.247368      0.365410     -0.636343
Pb      14.88196      0.03500      4.29263         0.530757     -0.316809     -0.420555
Pb       0.05646     14.97531      0.16118        -0.576447     -0.300591     -0.347556
Pb       3.47458      3.74138      8.27023         1.230910     -0.304331     -0.529022
Pb       3.70871      0.17170      8.22945        -0.506206     -0.568968     -0.086170
Pb      14.80100      3.76757      8.31382         0.499697     -0.266283     -0.356434
Pb      14.84174     15.00793      8.20784         0.757107      0.353971     -0.094738
Pb       3.73388      3.66026     12.38816        -1.022586     -0.018820      0.596754
Pb       3.62273     14.97396     12.34083         0.340378      0.018457      0.051965
Pb      14.90031      3.79494     12.38198         0.264611      0.131218      0.049826
Pb      14.98115     14.97894     12.32942         0.338873      0.391001     -0.009278
Pb       3.87784      7.52393      4.17938         0.111583     -0.188101      0.729342
Pb       3.77389      7.56723      0.06702         0.122754     -0.141805     -0.534898
Pb       0.17218      7.52988      4.19519        -0.559070      0.189343     -0.304153
Pb       0.01998      7.42890      0.06760         0.027832      0.369539      0.343825
Pb       3.71827      7.53294      8.31174         0.551144     -0.046367     -0.500079
Pb       0.06758      7.54988      8.34626        -0.752083     -0.058166     -1.099619
Pb       3.62491      7.40098     12.33358         0.060235      0.083976     -0.198210
Pb      14.87806      7.47763     12.29463         0.748815     -0.289377      0.141328
Pb       3.88756     11.04903      4.24166        -0.105021      0.471796      0.208296
Pb       3.77005     11.18968      0.13523         0.281053      0.031017     -0.436870
Pb       0.15588     11.11549      4.16530        -0.587597      0.484378      0.075598
Pb       0.10187     11.29614      0.16153        -0.874944     -0.638103     -0.126765
Pb       3.73594     11.28531      8.26505         0.250726      0.230532     -0.694723
Pb       0.10412     11.27841      8.19663        -0.606905      0.008308     -0.650812
Pb       3.72616     11.18714     12.29076         0.270540      0.418064     -0.266545
Pb       0.01390     11.27293     12.29538         0.209470     -0.721801      0.652804
Pb       7.40817      3.89511      4.02757         0.299788     -0.935869      0.620802
Pb       7.44647      3.68993      0.07333         0.478950      0.311142     -0.676848
Pb       7.52470     14.89246      4.11134        -0.153849      0.233817      0.076632
Pb       7.49499     14.87774      0.04175        -0.092216     -0.004978     -0.305029
Pb       7.39599      3.76109      8.28634        -0.290026     -0.520193     -0.545474
Pb       7.41333      0.14785      8.26195         0.181156     -0.243223     -0.447078
Pb       7.30409      3.81214     12.40402         0.394383     -1.011475     -0.107714
Pb       7.42827     14.99024     12.24143         0.016589      0.047879      0.504010
Pb       7.65106      7.44558      4.11334        -0.834145     -0.018502      0.224564
Pb       7.51669      7.40450     16.34452         0.046094      0.581879     -0.117255
Pb       7.59776      7.37313      8.29886        -0.767661      0.993733     -0.071695
Pb       7.44658      7.61232     12.27110         0.166194      0.060266      0.229871
Pb       7.63803     11.06306      4.18836        -0.405721      1.104325      0.172310
Pb       7.45858     11.26590     16.39773         0.568472     -0.261878      0.299028
Pb       7.63782     11.30167      8.17692        -0.462737     -0.189959     -0.190811
Pb       7.48672     11.36491     12.16741        -0.086836     -0.478168      0.337284
Pb      11.17816      3.81504      4.17551        -0.350860     -0.252938     -0.309996
Pb      11.25864      3.77015      0.09576         0.073251     -0.064526     -0.440951
Pb      11.26297     14.90396      4.07275        -0.130399      0.152223      1.204931
Pb      11.30958     14.97277      0.05861         0.468845     -0.302461     -0.231939
Pb      11.19542      3.69280      8.38772         0.332385      0.008922     -0.502624
Pb      11.18580      0.02316      8.25553        -0.132646     -0.066157     -0.419637
Pb      11.09553      3.74328     12.33072         1.229550     -0.439391      0.690132
Pb      11.18277     14.94271     12.44618         0.114822      0.042012     -0.351432
Pb      11.40689      7.49523      4.16965        -0.171012      0.088645      0.143898
Pb      11.23452      7.41072      0.06739         0.075685      0.388185     -0.446646
Pb      11.26322      7.44745      8.29005         0.419887      0.373610     -0.902289
Pb      11.08309      7.44126     12.32073         0.505137      0.610355      0.110937
Pb      11.29240     11.11387      4.10665         0.324501      0.749831      0.514420
Pb      11.24516     11.20547      0.03145         0.372875      0.435092     -0.303083
Pb      11.33759     11.39303      8.29173         0.093661     -0.499325     -0.821370
Pb      11.14120     11.23875     12.32078         0.346810      0.237801     -0.094902
Ti       1.89272      1.81841      1.99956        -0.184167     -0.234427      0.871668
Ti       1.85457      1.82598     14.41304         0.222529     -0.251872     -0.710961
Ti       1.96946     13.06882      2.03969        -1.280217      1.066904      0.599792
Ti       1.89428     13.06808     14.29976         0.914090      0.839344      0.156259
Ti      13.13519      1.81507      2.20489         0.311561     -0.121763     -0.723538
Ti      13.11915      1.79821     14.35439         0.240531      0.791700      0.360711
Ti      13.19035     13.00676      2.19983        -0.048617      0.629150     -0.571320
Ti      13.23613     13.06865     14.31964        -0.701149     -0.094297      0.354110
Ti       1.80802      1.83094      6.18878         0.009245      1.638972     -0.594317
Ti       1.89929     13.15829      6.09983        -0.770324     -0.579074      0.974126
Ti      13.00811      1.94911      6.27970         0.943420     -0.686821     -0.655455
Ti      13.09669     13.17320      6.26832         0.893657     -1.195141     -1.224829
Ti       1.72583      1.96788     10.41271         0.600339     -0.837589     -0.622274
Ti       1.80650     13.15851     10.21406         0.605366      0.247675     -0.437965
Ti      13.01909      1.79515     10.36122         0.445900      1.103738     -0.482967
Ti      13.12692     13.13316     10.34138        -0.334538      0.021654     -0.380637
Ti       1.97435      5.59656      2.07557        -1.082118      0.031650     -0.460697
Ti       1.87762      5.62618     14.39839        -0.571707     -0.949931     -0.440885
Ti      13.16540      5.59390      2.22806         0.104674      0.287201     -1.168640
Ti      13.16725      5.66437     14.48011        -1.617865     -1.004227     -0.917713
Ti       1.89448      5.58887      6.13846        -0.351609      0.811539     -0.202949
Ti      13.14692      5.64142      6.21297         0.313889      0.788684      0.041619
Ti       1.80149      5.63975     10.15918        -0.343564     -0.472994      2.135016
Ti      13.00196      5.66283     10.31105         1.665259     -1.795273      0.075382
Ti       1.96790      9.31886      2.12029        -1.404706     -0.465064     -0.075705
Ti       1.83672      9.36783     14.41678         0.259949     -0.063207     -0.561078
Ti      13.07020      9.32733      1.99477         1.084929     -0.113658      0.005013
Ti      13.16639      9.36420     14.23444        -0.640361     -0.079096      1.289802
Ti       1.88093      9.34655      6.26699         0.658015      0.472712     -0.336089
Ti      13.13590      9.37612      6.23931        -0.032718      0.457363     -0.311074
Ti       1.95213      9.39186     10.28920        -0.373965     -0.251139     -0.054787
Ti      13.16657      9.38489     10.29202        -0.028296      0.787631     -1.248321
Ti       5.63369      1.89748      1.99062        -0.331432     -0.969164      0.827762
Ti       5.63866      1.81084     14.39050        -0.726300     -0.100037     -0.348430
Ti       5.62779     13.07911      2.10165         1.005795     -0.426932      0.579991
Ti       5.57349     13.04923     14.36152         0.501982      0.537989     -0.146060
Ti       5.55194      1.83899      6.04307         0.219229      1.087278     -0.512177
Ti       5.62016     13.14457      6.13128        -0.146901     -1.061742      0.268520
Ti       5.46946      1.85208     10.35078        -0.018828      0.311385     -0.007487
Ti       5.57353     13.16210     10.15250        -0.167252     -0.629501      0.262284
Ti       5.57561      5.62498      2.03641         0.755525      0.425611      0.126591
Ti       5.58728      5.66006     14.32831        -0.018196     -0.389178      0.685986
Ti       5.64698      5.62933      6.25040        -0.501119     -0.618846     -1.047987
Ti       5.59567      5.54145     10.29495        -1.323718      0.667824     -0.446172
Ti       5.67354      9.32903      2.05501         0.494873      0.755597     -0.799990
Ti       5.61743      9.41633     14.28220        -0.560870     -1.019134      0.565137
Ti       5.71510      9.37615      6.37398        -0.155501      0.102813     -0.254360
Ti       5.74120      9.34573     10.27113        -0.420597      0.639394     -0.951097
Ti       9.44049      1.76615      1.97479        -0.983402      1.380501      0.885408
Ti       9.36467      1.81757     14.37628         0.323379      0.719734     -0.317007
Ti       9.41458     13.11220      2.05473        -0.633093     -0.824601      0.317186
Ti       9.38883     13.14511     14.30169        -0.414725     -0.416771     -0.055942
Ti       9.29204      2.01365      6.13565         0.056074     -1.634970     -1.040442
Ti       9.36103     13.18477      6.17929         0.579632     -0.209093     -0.244867
Ti       9.27868      1.91872     10.28430        -0.899470     -1.676005      0.666272
Ti       9.34925     13.14470     10.20676         0.110956      0.749969      0.393057
Ti       9.37619      5.65616      2.05473         0.631043     -0.795438     -0.609833
Ti       9.38955      5.61437     14.20239        -0.283268     -0.075698      1.966916
Ti       9.36083      5.67444      6.30268         0.996600     -0.211717     -1.173071
Ti       9.28229      5.57165     10.32598        -0.068107      1.137489     -0.905477
Ti       9.38537      9.37867      2.13406         0.256706      0.449930     -1.209229
Ti       9.37710      9.47079     14.36049        -0.088512     -0.814545     -0.452143
Ti       9.47389      9.37582      6.15500        -0.039151      0.703433      0.086384
Ti       9.51852      9.39753     10.14925        -2.357901     -0.164704      0.466778
O       1.94707      1.86264      0.15796        -0.362261     -0.103340      0.024850
O       1.80154      1.88063     12.52261         0.073823     -0.586693      0.093090
O       1.88333     13.15386      0.17846        -0.310516     -0.504795      0.574168
O       1.99561     13.04603     12.42403        -0.042439     -0.095414      0.538334
O      13.13113      1.83468      0.28639        -0.090453      0.030570      0.371564
O      13.07315      1.73284     12.48051        -0.285767      0.198163      0.211571
O      13.15669     13.00510      0.25889         0.338745      0.548808     -0.274942
O      13.12245     13.19720     12.40434         0.024205     -0.285792      1.231401
O       1.86664      1.90894      4.31924         0.121200      0.008298     -0.014821
O       1.79984     13.13494      4.30424         0.335758      0.161657     -1.232089
O      12.99448      1.86500      4.33214         0.516913      0.276743      0.090875
O      13.13680     13.09433      4.25817         0.026898      0.063504      0.512334
O       1.89815      2.01328      8.54198        -0.287085     -0.493864     -0.369740
O       1.72952     13.08833      8.34062         0.045707      0.124177      1.486313
O      13.14089      1.93048      8.40773        -0.075491     -0.308309      0.305630
O      13.14127     13.22844      8.40344         0.050801     -0.034572      0.332417
O       1.91133      5.57588      0.12729        -0.062657     -0.014228      1.282439
O       1.76127      5.70020     12.51229         0.213877      0.202087      0.358788
O      13.04015      5.53684      0.20797         0.543965      0.369253      0.546412
O      13.17229      5.53457     12.49404        -0.612742      0.747814      0.029435
O       1.92569      5.77115      4.24632        -0.541844     -0.667291      0.442975
O      13.22674      5.73585      4.26872        -0.117054     -0.938034      0.663337
O       1.89950      5.66407      8.37898        -0.258224     -0.180974     -0.357456
O      13.02894      5.53563      8.45302         0.207763      0.157258     -0.165662
O       1.86719      9.30522      0.27845        -0.114100      0.288098     -0.744322
O       1.90711      9.26606     12.48740         0.159684      0.277054      0.841820
O      13.10882      9.23836      0.13136        -0.243657      0.361432      0.814167
O      13.13068      9.37260     12.38383        -0.431632      0.112222      0.747388
O       1.95941      9.27134      4.31324        -0.289874      0.013114      0.107062
O      13.00020      9.41385      4.29284         0.579254     -0.279221      1.133923
O       1.76706      9.38765      8.38766         0.382887      0.059244      0.916465
O      13.16270      9.42483      8.36066        -0.243614     -0.375647      1.616630
O       5.48597      1.86791      0.12556         0.668028      0.219473      0.549572
O       5.58551      1.80619     12.50329         0.314084      0.171576      0.726739
O       5.68509     13.01845      0.23943        -0.127612      0.157474      0.201239
O       5.62677     13.04010     12.52997        -0.206397     -0.039401     -0.018488
O       5.51325      1.77396      4.12291         0.012741      0.407275      1.285673
O       5.49399     13.00762      4.24677         0.390198      0.717857      0.507278
O       5.40272      1.86605      8.51829         0.653350      0.025025     -0.276715
O       5.74141     13.10729      8.35653        -0.661136      0.287035      0.287557
O       5.51300      5.65448      0.17428         0.512157     -0.218559      0.232972
O       5.66495      5.62422     12.49458        -0.375251      0.130416     -0.516295
O       5.78010      5.60717      4.21909        -0.437643      0.549072      1.417377
O       5.70449      5.52028      8.45165        -0.443074      0.215936     -0.591016
O       5.55443      9.31976      0.19528         0.337682      0.244579      0.740666
O       5.67487      9.33860     12.41862        -0.206488      0.177250     -0.008813
O       5.52817      9.34285      4.49841         0.483924      0.135440     -1.459038
O       5.70814      9.34958      8.33574        -0.184119      0.235572      1.114524
O       9.44949      1.74955      0.14558        -0.352115     -0.132026      0.030278
O       9.42679      1.85377     12.45797        -0.086525     -0.271893      0.621205
O       9.36184     13.06418      0.18759         0.198550      0.420173      0.346620
O       9.33149     13.19345     12.40929         0.206315     -0.646236      0.755621
O       9.41804      1.98750      4.22521        -0.206536     -0.032334      1.422360
O       9.37444     13.16678      4.35080        -0.179259     -0.091451     -0.138979
O       9.20646      1.88470      8.47910         0.014704     -0.013553     -0.916882
O       9.38789     13.16719      8.37733        -0.131711      0.133832      0.046519
O       9.49432      5.70579      0.17928        -0.863702     -0.390316      0.545160
O       9.40432      5.54513     12.34667        -0.277473      0.450642      0.907415
O       9.30992      5.66373      4.31793         0.025959     -0.257439      0.112805
O       9.20933      5.64880      8.41526         0.858777     -0.469143      0.505518
O       9.56526      9.49785      0.25326        -0.825116     -0.506326     -0.330102
O       9.33209      9.39018     12.40948         0.283185      0.217166      1.390660
O       9.52427      9.35386      4.20603        -0.976620     -0.350375      1.206031
O       9.41479      9.40144      8.34274         0.072892     -0.337586      0.319955
O       3.66393      1.37306      2.19765         1.322628      0.812815      0.297464
O       3.77743      2.11228     14.47325        -0.107843      0.007726      0.254769
O       3.73491     13.59423      2.25875         0.065551     -1.136538     -0.300203
O       3.74838     12.76279     14.66104         0.250585     -0.181402     -0.340438
O       0.04862      2.21627      2.19661        -1.351633      0.119659      0.606152
O      15.00422      1.50311     14.61390        -0.695304      0.242617     -0.081509
O      15.00587     12.63365      2.23570         0.575418      0.397421      0.238372
O       0.11733     13.50402     14.30488        -2.046603     -0.266900      0.813196
O       3.76239      1.79505      6.46087        -1.883787      0.227481     -0.173654
O       3.67904     13.22770      6.50533         0.737739     -0.150669     -0.160118
O       0.01122      2.10029      6.46356        -1.313797     -0.415693     -0.300792
O      14.98162     12.97313      6.31477        -0.448920      0.559213      0.290465
O       3.60438      1.53284     10.61098         0.755029      0.304647     -0.191423
O       3.71959     13.33937     10.35972        -0.144565      0.131984     -0.003935
O      14.90516      2.14579     10.56239         0.011352      0.175390     -0.332259
O      14.97327     12.76424     10.67257         0.607654      0.853509     -1.604200
O       3.79361      6.00388      2.36014        -0.102881     -0.038059     -0.477392
O       3.70459      5.26683     14.47317         0.606995      0.242571     -0.055134
O       0.06058      5.17291      2.30246        -0.576829      0.696806     -0.576940
O      14.92016      5.88015     14.57505         1.809314      0.557646      0.165992
O       3.74277      5.73018      6.27064         0.588410      0.629751      0.439326
O       0.02707      5.58756      6.45002        -1.029446     -0.684090     -0.231750
O       3.68166      5.92488     10.36069         0.191748     -0.078894      0.495797
O      14.95160      5.19154     10.41134         0.040614      1.098333     -0.136590
O       3.80613      9.11764      2.24742        -0.453074     -0.912300      0.527190
O       3.69474      9.71048     14.69542        -0.229721     -0.541506     -0.798617
O      14.95055      9.51001      2.33679         0.399983      0.539399     -0.123124
O      14.97671      8.94902     14.59886         0.434608     -0.093677     -0.436094
O       3.72287      9.30261      6.47429         0.174172     -0.289305      0.243832
O      14.97859      9.50080      6.40699         0.229136      0.189760     -0.382093
O       3.83847      9.08356     10.32832        -1.542364     -0.260286      0.327362
O      14.95943      9.65239     10.58120         0.986172     -0.217135     -0.721579
O       7.45138      2.16099      2.13205         0.376759      0.010491     -0.068294
O       7.54660      1.44778     14.64402        -0.271294      0.669517     -0.185869
O       7.54176     12.66316      2.39007        -1.154687      1.180779     -0.481068
O       7.51591     13.34827     14.56256         0.005236      0.009376      0.041440
O       7.38242      1.99266      6.38693         0.719471     -0.116718      0.082943
O       7.48655     13.02445      6.45749        -0.466809     -0.069375     -0.591293
O       7.34143      2.16829     10.46536         1.206360     -0.069686      0.119790
O       7.44762     12.84563     10.42942         0.579813      0.134567     -0.119892
O       7.51718      5.30045      2.27632        -0.035449      0.304615     -1.024919
O       7.45426      5.92683     14.53154         0.643415     -0.631945     -0.186334
O       7.54226      5.42589      6.43397        -1.393098      0.239785     -0.219711
O       7.42898      5.23449     10.41959         0.496722      0.191045      0.399520
O       7.49578      9.81083      2.28742         0.079846     -0.848783     -0.100145
O       7.38215      9.14119     14.64243         1.890190     -0.189031     -0.211292
O       7.58529      9.53329      6.30109        -0.450038     -0.077527      0.262419
O       7.56140      9.57914     10.33745        -0.095539      0.222525      0.526864
O      11.22170      1.38239      2.27884         0.623416      0.482888     -0.555668
O      11.26231      2.07083     14.62767        -0.041182      0.040128     -0.310166
O      11.23176     13.48758      2.29763         0.294799     -0.492737     -0.552393
O      11.34522     12.77829     14.41948        -0.481533     -0.027794      0.047016
O      11.18999      1.76245      6.54579        -1.049113      0.292610     -0.160699
O      11.25662     13.21434      6.39322        -0.474649      0.681794      0.242831
O      11.15676      1.55090     10.14490         0.242947      0.014852      1.323177
O      11.25741     13.38601     10.49657        -0.396602      0.428370     -0.342335
O      11.29183      5.83154      2.29108        -1.192993      0.188048      0.305714
O      11.19091      5.37389     14.57886        -0.527354      0.025642     -0.594497
O      11.29706      5.75818      6.37325        -0.957496     -0.056219      0.113729
O      11.18700      5.91219     10.32772        -0.748940     -0.398678      0.654207
O      11.20616      9.04568      2.40561         0.623206     -0.189042     -0.981781
O      11.24613      9.77223     14.46216        -0.006036     -0.347170     -0.289605
O      11.24223      9.09327      6.44183         0.934604      0.329970     -0.169542
O      11.25678      9.06113     10.40033         0.759180     -0.111639      0.450927
O       2.31645      3.76411      2.20336        -0.201984     -0.582459      0.168270
O       1.57606      3.66201     14.54084        -0.032945      1.322846      0.381257
O       1.40852     14.97427      2.17164         0.463539     -0.416123      0.423282
O       2.24852     14.97569     14.56597        -0.177011     -0.496501     -0.143912
O      12.71590      3.67562      2.39320         0.754840      0.350459     -0.311135
O      13.39942      3.76473     14.53627        -0.404278     -1.326092      0.136340
O      13.54555     14.94282      2.33068        -0.583512      0.483440     -0.222505
O      12.81246     14.93672     14.62246         0.491589     -0.155537     -0.382270
O       1.93924      3.78878      6.41310         0.406259     -0.179222     -0.187265
O       1.66675      0.06411      6.38958         0.247006     -1.480433      0.294229
O      12.94884      3.75591      6.42556         0.122749      1.137042     -0.137650
O      13.17857      0.08074      6.31328         0.516131     -1.050443      0.486585
O       2.08075      3.75612     10.61036         0.321709      1.025825     -0.497505
O       1.57629     14.95613     10.43102        -0.329281      0.266094      0.081756
O      12.72802      3.69345     10.48888        -0.065220      0.165728      0.099171
O      13.55083      0.02323     10.39321        -0.807125     -0.969317     -0.093741
O       1.54562      7.45458      2.19158         0.230250     -0.139729      0.202069
O       2.17183      7.43778     14.67676        -0.206939      1.209300     -0.470591
O      13.32526      7.45928      2.31894         0.218651     -0.522836     -0.233228
O      12.63733      7.50538     14.45617         0.737239      0.256762     -0.075825
O       1.64514      7.52646      6.49255         0.617327     -0.513980     -0.303102
O      13.25338      7.49166      6.49736         0.004347     -0.036604     -0.170663
O       1.52972      7.54666     10.37035         0.118788     -1.040322      0.391401
O      13.37117      7.47406     10.43767        -0.056249      0.341512     -0.028420
O       2.20016     11.17906      2.26089        -0.303006      0.894521      0.204197
O       1.42045     11.26713     14.57326         0.957291     -1.332150     -0.144111
O      12.70474     11.17868      2.17324         0.205243      0.028955      0.214301
O      13.64509     11.17130     14.59093        -1.074499      1.036406     -0.514266
O       1.90116     11.27943      6.37782         0.136138     -0.784102      0.031567
O      12.94108     11.27944      6.48901         0.120292     -0.506665     -0.291903
O       2.20455     11.19124     10.46570        -0.577969      0.776972     -0.036477
O      12.78358     11.29434     10.40941         0.261392     -0.878566      0.171737
O       5.29635      3.79111      2.29206         0.047209     -0.959552     -0.465378
O       5.92996      3.71062     14.54628         0.017810      0.167605     -0.044927
O       5.95053     14.98688      2.16813        -0.047001     -0.299794      0.081859
O       5.36642     14.92423     14.60012         0.203447      0.060973     -0.035940
O       5.37719      3.72636      6.34292         0.653110      0.282276     -0.139016
O       5.42418     14.98643      6.35462         1.454384      0.337545      0.073614
O       5.19719      3.71374     10.64387         0.638587      0.590722     -0.723666
O       5.87344      0.00868     10.52474        -0.368088     -0.919869     -0.469586
O       6.04110      7.53604      2.19834        -0.338990     -0.935490      0.529155
O       5.27344      7.50139     14.50618        -0.178177     -0.072797      0.014141
O       5.76670      7.48400      6.44053         0.008603     -0.615123      0.050209
O       5.88788      7.43695     10.36887         0.209065      0.116703      0.436263
O       5.20741     11.20514      2.25533         0.407404      0.658808      0.090501
O       5.93411     11.17277     14.65817        -0.652963      1.276137     -0.643356
O       5.43223     11.28248      6.37900         0.200764     -0.176950      0.227060
O       5.32705     11.24609     10.42580         0.386039     -0.357453      0.175893
O       9.67143      3.68951      2.00717        -0.095260      0.223268      0.943211
O       9.08033      3.73190     14.47779        -0.087120      0.121716      0.188136
O       8.96650     14.95957      2.37794         0.447718      0.177979     -0.737849
O       9.72645     14.94190     14.50215         0.093873      0.509014      0.218673
O       9.48389      3.80755      6.50299         0.176870     -1.086447     -0.203016
O       9.11629      0.02706      6.30598         0.540862      0.820215      0.432110
O       9.52939      3.73175     10.54834         0.632346      0.033017     -0.491672
O       8.98146     14.96653     10.47245         0.306003      0.964870     -0.491599
O       8.96138      7.51498      2.12086         0.453033     -0.239546      0.440184
O       9.49874      7.54841     14.50798         0.532213     -0.239486     -0.162489
O       9.27800      7.50709      6.45657        -0.541311     -0.301433     -0.058391
O       9.08609      7.46319     10.53088         0.111982      0.156607     -0.475569
O       9.67718     11.26256      2.38695         0.198628      0.029455     -0.506848
O       9.09644     11.30994     14.53557        -0.040689     -1.031092     -0.118082
O       9.62072     11.22498      6.39954        -0.586254      0.408965     -0.042678
O       9.61526     11.28703     10.37525        -0.014049     -0.851600      0.284567
