  # total energy = -7882.91389693 
CRSYTAL
PRIMVEC
    15.3600000000000000    0.0000000000000000    0.0000000000000000
     0.0000000000000000   15.3600000000000000    0.0000000000000000
     0.0000000000000000    0.0000000000000000    17.440000000000000
PRESSURE
1.8238 1.58921 1.00901 0.462971 0.211536 -0.010765
PRIMCOORD
320 1
Pb       3.93071      3.77892      4.33285        -0.126760     -0.053868     -0.245327
Pb       3.82925      3.79621     17.40275         0.096617      0.002246      0.428598
Pb       3.81847      0.00928      4.36886         0.178469      0.006813      0.303500
Pb       3.86665     15.31847     17.30637        -0.376346      0.093666      0.418536
Pb       0.03758      3.85763      4.29998         0.317860     -0.114552     -0.207197
Pb      15.33932      3.75404     17.39524        -0.506665      0.159683      0.551339
Pb       0.01715     15.35974      4.36531        -0.066913     -0.222017     -0.113530
Pb      15.29051      0.08991     17.34024         0.542187     -0.421481      0.583544
Pb       3.74844      3.92069      8.59168        -0.026633     -0.187735      1.134506
Pb       3.69808     15.25937      8.71465         0.163238      0.816542      0.860184
Pb      15.23828      3.88020      8.69281         0.700333     -0.109213      0.405485
Pb      15.32496     15.27395      8.68879        -0.072394      0.202598      0.555554
Pb       4.03242      3.75611     12.96399        -1.031536      0.462350      0.297470
Pb       3.85794     15.34208     12.97813        -0.359484      0.035325     -0.427244
Pb       0.00441      3.79179     13.01029         0.118134      0.224850      0.086072
Pb      15.26743     15.22049     13.00194         0.306630      1.273329      0.687459
Pb       3.86614      7.70622      4.29768        -0.053339     -0.212622      0.429818
Pb       3.77901      7.71210      0.01475         0.405449     -0.286794     -0.276663
Pb       0.00252      7.60893      4.26963         0.173047      0.318051      0.323409
Pb       0.15518      7.67544      0.02608        -0.762071     -0.042471     -0.496337
Pb       3.71988      7.62745      8.63070         0.414992      0.450187     -0.134797
Pb      15.18423      7.70292      8.68119         0.825305      0.161126      0.033292
Pb       3.87422      7.60709     13.10454        -0.106685      0.275056     -0.086845
Pb       0.00654      7.68612     13.02544        -0.591234     -0.160120     -0.093756
Pb       3.83705     11.46890      4.38172         0.207666      0.380767      0.411521
Pb       3.74809     11.48725     17.38793         0.525901      0.242341     -0.581352
Pb       0.03924     11.55262      4.22047        -0.365078      0.004005      0.894903
Pb      15.24100     11.44079      0.04484        -0.230343      0.223498     -0.480614
Pb       3.84021     11.43339      8.69820        -0.391216      0.143326      0.088030
Pb       0.02817     11.52121      8.70670         0.069332     -0.097667     -0.568568
Pb       3.84349     11.37257     12.89691         0.224632      0.280761      0.513706
Pb       0.04836     11.39836     13.01885        -0.263148     -0.265517      0.162931
Pb       7.65488      3.82391      4.21157        -0.396822     -0.182132      1.007345
Pb       7.70161      3.73531      0.03678        -0.101302      0.420816     -0.476505
Pb       7.63593     15.26590      4.35815         0.329707      0.174967      0.659058
Pb       7.54539     15.29658     17.42136         0.242189     -0.230209     -0.312012
Pb       7.50251      3.91103      8.57852         0.419724      0.266063      0.782991
Pb       7.65287      0.12940      8.68287         0.012293     -0.322066      0.385054
Pb       7.67384      3.83808     12.99332         0.123988     -0.134489     -0.289970
Pb       7.71635     15.33848     12.93223        -0.520364      0.639841      0.306716
Pb       7.68654      7.68354      4.30469         0.344842      0.136313      0.225711
Pb       7.58367      7.66020     17.43865         0.100765      0.201003      0.063419
Pb       7.74125      7.63845      8.71294        -0.235103      0.151693     -0.279529
Pb       7.70862      7.67058     13.13571         0.049604      0.367441     -0.350756
Pb       7.64442     11.38723      4.32991         0.197426      0.331734     -0.043844
Pb       7.51963     11.61655     17.24437        -0.084319     -0.582087      0.785004
Pb       7.84794     11.50860      8.77258        -0.993820      0.031742     -0.293280
Pb       7.67274     11.62562     12.96303        -0.048014     -1.181469      0.537267
Pb      11.53936      3.72135      4.26957        -0.205887     -0.091449      0.713403
Pb      11.52706      3.82704      0.08650        -0.159226     -0.118141     -0.841886
Pb      11.64150     15.33303      4.35638        -0.480742     -0.488668     -0.197158
Pb      11.32370     15.29872     17.43856         0.343503      0.226290      0.045823
Pb      11.55509      3.82108      8.60123        -0.488463      0.131051      0.548178
Pb      11.42926      0.05175      8.64772         0.267762     -0.345358      0.415021
Pb      11.44537      3.80181     13.00450         0.232073      0.588009      0.621448
Pb      11.39556     15.29825     13.12217         0.427911      0.389620     -0.351435
Pb      11.57042      7.52905      4.28291        -0.575237      1.086362      0.569162
Pb      11.37494      7.74297     17.39053         0.950934     -0.735545      0.935798
Pb      11.57443      7.69988      8.61770        -0.303063     -0.511747     -0.026395
Pb      11.43346      7.55560     13.16034         0.906189      0.042086     -0.531889
Pb      11.42760     11.53353      4.23787         0.501938      0.127432      0.058948
Pb      11.45257     11.54100     17.37630         0.496522      0.066133      0.990606
Pb      11.34546     11.41277      8.72807         0.815354      0.563084     -0.315198
Pb      11.58285     11.47246     13.07846         0.258474     -0.262276      0.163242
Ti       1.90795      1.87465      2.34063         0.752171      0.253087     -0.612683
Ti       1.90924      1.94762     15.41422        -0.730563     -0.412651      0.289771
Ti       1.99213     13.39956      2.23441        -0.490270      0.852079      1.850863
Ti       1.87496     13.46705     15.27542         0.765478     -0.245620      0.064320
Ti      13.43757      1.91020      2.31779         0.406620     -0.649017     -0.794651
Ti      13.34094      1.87126     15.39906        -0.033170      0.643537      1.408782
Ti      13.53786     13.40651      2.33827        -2.527364     -0.404184     -1.481305
Ti      13.45100     13.42808     15.49433        -0.156595     -0.692754     -0.259749
Ti       1.86641      1.96683      6.73544         0.024732     -0.073113      1.460578
Ti       1.91129     13.52133      6.70133        -0.867049     -1.587617      0.254521
Ti      13.46211      1.86379      6.70678        -0.646943     -0.363367     -0.121300
Ti      13.36892     13.40607      6.75570         0.543608     -0.332679     -1.042798
Ti       1.84017      1.94942     11.01785         0.738035      0.102965      1.094453
Ti       1.88713     13.42166     11.11901         0.666506      0.533155      0.463257
Ti      13.38293      1.90617     11.00712         0.171755     -0.162284      0.153623
Ti      13.41577     13.43341     11.11258        -0.312412     -0.054779     -1.006074
Ti       1.90714      5.77845      2.27842         0.609533     -0.935226     -0.509936
Ti       1.88679      5.69191     15.48018        -0.022010      1.559460      0.086317
Ti      13.39937      5.71598      2.37742         0.331290      0.737442     -1.284357
Ti      13.40264      5.70360     15.56404        -0.923579      0.327623     -0.800897
Ti       1.85102      5.79759      6.67230         0.661698      0.607101      1.041863
Ti      13.48157      5.68033      6.61312        -0.895899      0.890070     -0.244558
Ti       1.90783      5.81320     11.00210        -0.494582     -0.895431      0.714198
Ti      13.43842      5.66018     11.01593        -0.430137      2.337577     -0.451544
Ti       2.00027      9.62483      2.27024        -0.370122     -0.288275      0.183248
Ti       1.96413      9.62568     15.40267         0.046225     -0.301574      0.503571
Ti      13.50243      9.61910      2.32710        -0.815909      0.880805      0.115278
Ti      13.46235      9.52444     15.45597         0.310908      0.180765      0.189129
Ti       1.99917      9.65424      6.55484        -1.346125     -0.077371      2.893341
Ti      13.47364      9.60511      6.59930         0.448283      0.477443      1.958092
Ti       1.99328      9.56164     11.00156        -0.784003      0.288838     -0.414566
Ti      13.40663      9.56155     10.98328         0.638101     -0.740495      1.983872
Ti       5.75877      1.87358      2.31943        -1.094762      0.313735      1.336146
Ti       5.71203      1.84483     15.35232         0.271697      1.107217     -0.771506
Ti       5.64752     13.46716      2.37162         1.813768     -0.084526      0.496372
Ti       5.70684     13.38964     15.19171         0.150037     -0.362867      2.188444
Ti       5.68824      1.88909      6.77345         0.287981      0.877404     -1.616156
Ti       5.69727     13.45585      6.87739         0.478126     -0.328883     -0.466597
Ti       5.69833      1.92425     10.93849         0.484123     -0.010498      0.839074
Ti       5.78673     13.40857     10.94520        -1.292063      0.210533      0.307379
Ti       5.70950      5.79086      2.37552         0.196545     -0.119371      1.744694
Ti       5.73110      5.69134     15.43427         0.040485      0.191871      0.560095
Ti       5.64692      5.79451      6.58398         0.975444      0.448699      0.694394
Ti       5.72836      5.83158     11.04384         0.452783     -0.104078     -1.082097
Ti       5.76558      9.65821      2.34415         0.450433     -0.503219     -0.041677
Ti       5.74682      9.52171     15.44778         0.125458      0.332002     -0.397511
Ti       5.77141      9.62147      6.71374         0.126507     -0.377541      0.611683
Ti       5.84294      9.54187     10.93212        -0.496590      0.028643      0.443152
Ti       9.51042      1.89049      2.36330         0.813694     -1.442347      0.092334
Ti       9.44571      1.89706     15.38209         1.303959      0.362984     -0.864593
Ti       9.51200     13.42943      2.38075         1.330969      0.112519     -0.370201
Ti       9.56933     13.37185     15.38659         0.065371      1.016812      1.418778
Ti       9.51824      1.94689      6.71351         0.944735      0.449828     -1.363498
Ti       9.46670     13.51255      6.69988         0.911720     -0.777292     -0.399754
Ti       9.60039      1.93599     11.05959        -0.138302      0.253274     -1.384917
Ti       9.61431     13.40610     11.04832         0.336915      0.397316     -1.664133
Ti       9.53492      5.68324      2.36012         0.475186      1.443042     -1.048885
Ti       9.54485      5.81852     15.45441         0.598427     -1.636392      0.862216
Ti       9.51187      5.71714      6.71849         1.030052      1.293363      1.345932
Ti       9.62073      5.79612     10.92634         0.664825     -0.354752     -1.058612
Ti       9.65067      9.60861      2.29819         0.021897     -0.632845      0.056701
Ti       9.63408      9.64260     15.49482        -1.736715     -0.642451     -1.063109
Ti       9.58978      9.58005      6.70152        -0.142807     -0.410791     -1.064673
Ti       9.64014      9.57992     11.08234         0.338878     -0.244076     -0.978272
O       1.98970      1.84843      0.58365        -0.205429      0.285152     -0.043721
O       1.83888      1.98939     13.69142         0.063909      0.089783     -0.443839
O       1.97462     13.39333      0.53796         0.277097      0.012929     -1.037049
O       1.94259     13.43509     13.45612        -0.185074      0.147667      1.568658
O      13.27065      1.89191      0.53850         0.829762     -0.101226      1.211963
O      13.44567      1.98233     13.68658        -0.186157     -0.165449     -0.925650
O      13.52015     13.29189      0.50517        -0.028696      0.174861      0.637637
O      13.35407     13.44627     13.72260         0.138372      0.047311     -0.266408
O       1.81598      1.86045      5.02049         0.280161      0.240494     -0.615950
O       1.94638     13.40335      4.97062        -0.202403      0.232494     -0.865755
O      13.38242      1.78254      4.92300         0.419359      0.499963      0.005926
O      13.49933     13.49943      4.95418        -0.074451     -0.195578      0.570111
O       1.94135      1.97540      9.31187        -0.242617     -0.270884     -1.239060
O       1.78489     13.52570      9.38147         0.290606     -0.023915     -0.563723
O      13.30981      2.03520      9.23422         0.158001     -0.445401      0.851282
O      13.53131     13.36772      9.35683        -0.243445      0.156188      0.375441
O       2.03923      5.73406      0.46674        -0.527926      0.245538      1.680354
O       1.79577      5.79912     13.73336         0.308374     -0.292114      0.004301
O      13.30842      5.79269      0.59936         0.086302     -0.429624      0.965744
O      13.30354      5.72692     13.77530         0.333082      0.099444      0.540757
O       1.84467      5.82949      4.97273        -0.295785     -0.364906     -1.931037
O      13.60761      5.68075      4.80852        -0.145884      0.176779      0.603145
O       1.88595      5.73093      9.26493         0.147910      0.588242     -0.109047
O      13.44128      5.79906      9.22035         0.101274     -0.323060      0.234807
O       2.05446      9.51286      0.48343        -0.253350      0.639617      0.629105
O       1.99525      9.69809     13.66581        -0.078804     -0.489049     -0.986533
O      13.47981      9.67486      0.57409         0.192098      0.110960     -0.418222
O      13.46391      9.56192     13.70526        -0.018710     -0.030236      0.047826
O       2.02507      9.64841      4.84627        -0.157531      0.114091     -1.547423
O      13.46409      9.68563      4.90676         0.159376     -0.163544     -1.192685
O       2.09088      9.68419      9.25086        -0.457772     -0.419371      0.276482
O      13.48897      9.54693      9.25169        -0.207034      0.116380     -0.578371
O       5.71832      1.80167      0.59384         0.244741     -0.157758     -0.927383
O       5.80609      2.01105     13.56397        -0.155947     -0.059866      0.512484
O       5.67095     13.55829      0.63318         0.183143     -0.160097     -0.447758
O       5.80001     13.29782     13.49825        -0.300523      0.468121     -1.461813
O       5.74743      1.99619      4.93604        -0.326904      0.075751      1.085061
O       5.72773     13.47446      5.13733         0.123837     -0.198127     -0.643023
O       5.77482      1.92110      9.19430         0.048061      0.047833      0.159923
O       5.72211     13.53837      9.20395         0.155138      0.063529     -0.091671
O       5.79741      5.71825      0.69866        -0.031269      0.177334     -2.169433
O       5.61540      5.73360     13.67458         0.474081      0.107368     -0.364580
O       5.81386      5.60103      4.84074        -0.311231      0.197074     -0.154676
O       5.74601      5.99819      9.27566        -0.056815     -0.412008      0.760450
O       5.76463      9.59639      0.60789        -0.126482      0.130008     -0.774992
O       5.66649      9.54783     13.70452         0.106983     -0.413954     -0.881613
O       5.70967      9.66616      4.95383         0.320292      0.176512     -0.464483
O       5.77930      9.35641      9.19140        -0.012233      0.490871      0.474858
O       9.49868      1.79982      0.60011         0.064284     -0.123511     -0.177095
O       9.50821      1.93624     13.54476        -0.118913     -0.049743      0.970858
O       9.60339     13.43640      0.59611        -0.429005      0.205927     -0.383008
O       9.61434     13.34072     13.67647        -0.066388      0.061016     -1.645484
O       9.62643      1.96817      4.86748        -0.133007      0.226909      1.552920
O       9.41743     13.51545      4.91100         0.281988     -0.552644      1.097680
O       9.65066      1.87704      9.22504        -0.160588     -0.118797      1.238818
O       9.74918     13.46671      9.23667        -0.932372     -0.247780      1.096470
O       9.58232      5.73042      0.58899        -0.191552      0.022157      0.413005
O       9.67396      5.82714     13.70816        -0.368459     -0.020548     -0.783024
O       9.47929      5.66292      5.02169         0.118598     -0.075930     -2.094843
O       9.77285      5.89155      9.11090        -0.637998     -0.152872      1.432157
O       9.72557      9.57811      0.50869        -0.562483      0.076837      0.342767
O       9.44988      9.59482     13.71691         0.768863     -0.007385      0.122164
O       9.50508      9.56219      4.87694         0.185927      0.431304      1.335079
O       9.74174      9.58338      9.23779        -0.408781      0.221136      1.507056
O       3.79932      1.86692      2.83262         0.828465      0.002700     -0.121721
O       3.78736      1.90108     15.76080         0.874977      0.697376     -0.052704
O       3.88077     13.34476      2.86611        -0.839501      1.206216     -0.381349
O       3.91600     13.50571     15.78436        -1.050369     -0.211998     -0.494107
O       0.05119      1.90550      2.73670        -1.096681     -0.237108      0.086709
O      15.34000      1.93701     15.90739        -0.183797     -0.091143     -0.305003
O      15.32986     13.34593      2.65737         2.412732      0.080808      0.144894
O       0.05423     13.47243     15.79376         0.462417     -0.518897     -0.350718
O       3.89072      2.01760      7.22819        -1.834877     -0.450972     -0.718311
O       3.75889     13.61191      7.15395         1.003650     -0.698256      0.034552
O      15.31334      1.94824      7.14554         0.514951     -0.107153     -0.226605
O       0.01093     13.53799      7.19040        -0.338056     -0.484775     -0.277166
O       3.81244      2.02996     11.45469         0.902348     -0.648818     -0.297881
O       3.81542     13.51182     11.35020         0.553506     -0.369709      0.177111
O      15.34392      1.79242     11.42322        -1.145473      0.741842     -0.039618
O      15.33412     13.58704     11.48588        -0.270132     -0.942964     -0.193093
O       3.82849      5.80355      2.86948        -0.712851     -0.062391     -0.651158
O       3.86349      5.66728     15.94349        -0.178783     -0.063141     -0.655580
O      15.34079      5.73615      2.68298         0.719242      0.290623     -0.028605
O      15.27744      5.73301     15.94851         0.697457      0.267221     -0.066186
O       3.80329      5.72839      7.06950        -0.329367      0.388679     -0.292059
O       0.02600      5.73223      7.14735        -0.905654      0.057534     -0.175538
O       3.82325      5.79518     11.45096        -0.012281      0.281428     -0.052125
O      15.30246      5.79954     11.41311         0.562159     -0.041683      0.272279
O       3.86511      9.46292      2.73399        -0.236498      0.591826     -0.061114
O       3.87116      9.50699     15.85526        -0.452217      0.202848      0.308794
O       0.10316      9.75662      2.66723         0.012284     -0.108540     -0.203068
O       0.08293      9.58507     15.84252        -0.433875     -0.124146      0.043430
O       3.82427      9.72734      7.10663         0.872682     -0.393575     -0.228444
O       0.08788      9.68560      7.15657        -0.444943     -0.402215     -0.666793
O       3.87694      9.58491     11.32804         0.467731     -0.460907      0.404376
O      15.34690      9.51400     11.46138        -0.074155      0.758210     -0.136626
O       7.64499      1.89736      2.72290         0.308737     -0.013966     -0.257405
O       7.61883      1.76765     15.79201         0.225009      0.114880      0.288028
O       7.67593     13.47608      2.78918        -0.849476     -0.320785     -0.135293
O       7.65141     13.43019     15.73740        -0.585725      0.317181      0.000048
O       7.60762      2.05561      7.08212         0.954282     -0.232564      0.170728
O       7.66438     13.44574      7.27143         0.066114      0.432692     -0.238146
O       7.67155      2.01346     11.38845        -0.240495     -0.592400      0.032385
O       7.64576     13.41466     11.43502         0.490725      0.184004     -0.345860
O       7.72153      5.71147      2.74299        -0.724066      0.144819      0.042846
O       7.61878      5.85361     15.83674         0.404751     -0.454287     -0.063839
O       7.64978      5.94854      7.06468        -0.685325     -0.915519      0.164479
O       7.73815      5.83466     11.38253        -0.060798     -0.204422      0.121372
O       7.63647      9.55145      2.71591         0.590973      0.289958      0.090834
O       7.63887      9.57169     15.75068         0.349807     -0.315427      0.875710
O       7.68736      9.62322      7.19960        -0.224207     -0.069877     -0.350499
O       7.75992      9.63326     11.47477        -0.784637     -0.348786     -0.380493
O      11.63128      1.90115      2.73011        -1.245284      0.238887      0.142120
O      11.49127      1.93917     15.89882        -0.830956     -0.613913     -0.566806
O      11.48090     13.38433      2.67942         0.231003     -0.093545      0.518856
O      11.53178     13.34098     15.80799        -0.550149      0.173090      0.042051
O      11.48951      1.89767      7.15553        -0.483014      0.460928     -0.713043
O      11.50665     13.46239      7.02804        -0.794806     -0.080496      0.040036
O      11.51501      1.96236     11.59690        -0.217046     -0.542394     -0.680827
O      11.44291     13.53009     11.31477         1.034702     -0.625669      1.117209
O      11.49151      5.70687      2.90108         0.213453     -0.054840     -0.650507
O      11.43992      5.68133     15.92180         0.090596      0.075017      0.074763
O      11.59106      5.87714      6.82718         0.150723     -0.514352      0.407709
O      11.54515      5.71659     11.40892        -0.892840      0.208305      0.332636
O      11.57391      9.64098      2.74811        -0.725900     -0.271617     -0.125202
O      11.47339      9.61228     15.77956         0.545031      0.269845     -0.050480
O      11.53500      9.56021      7.17395         0.341351      0.645797     -0.946514
O      11.54018      9.64729     11.52469        -0.424065      0.319086     -0.208708
O       1.95891      3.81851      2.72066        -0.186050      0.732435      0.044305
O       1.77240      3.88489     15.95123         0.941533     -1.268075     -0.546559
O       1.99705     15.33520      2.83076        -0.526206     -0.881452     -0.490487
O       1.97580      0.02819     15.92188        -0.645430     -0.742483     -1.132674
O      13.52002      3.88117      2.70420        -0.415023     -1.283958      0.049857
O      13.32005      3.77168     15.90268         0.767108      0.549493      0.154099
O      13.43758     15.25077      2.77478         0.381835      1.381936     -0.279783
O      13.53587     15.30474     15.86333        -0.890116      0.360995     -0.425299
O       1.85852      3.89875      7.17470         0.155385     -1.008809     -0.563987
O       1.84790      0.03055      7.15216         0.356145      1.057325     -0.009648
O      13.45396      3.78013      7.14549        -0.197819      0.979259     -0.834038
O      13.38194      0.01682      7.14992         0.356314     -0.174637      0.039737
O       1.87215      3.88765     11.40766        -0.255690      0.050565      0.325732
O       1.98939      0.06769     11.55826        -0.218737     -0.446718     -0.318686
O      13.38555      3.86519     11.42454         0.506451     -1.428580      0.138718
O      13.30404      0.03219     11.48444         0.321868     -0.324733      0.017258
O       1.85224      7.69026      2.71323         0.172927     -0.159345     -0.321578
O       1.98261      7.67736     15.86586        -0.313542     -0.577057     -0.111366
O      13.54320      7.82246      2.76456        -0.344934     -2.158239      0.087338
O      13.34805      7.69277     16.02833         0.457239     -0.248071     -0.745928
O       1.98729      7.74114      6.97509        -0.213876     -0.257249      0.167937
O      13.58675      7.64052      7.04333        -0.364848      0.417838     -0.515153
O       1.85089      7.74037     11.49042         0.630568     -1.257361     -0.129951
O      13.36735      7.68976     11.49108         0.076479     -0.063852     -0.232340
O       2.15148     11.55229      2.67766        -0.774992     -0.766119     -0.300804
O       2.13119     11.52492     15.69457        -0.673543      0.959284      0.210288
O      13.37977     11.52224      2.78099         0.571443      0.142022      0.253677
O      13.47687     11.42463     15.83166         0.173738      0.803147      0.164274
O       2.00365     11.58628      7.11418        -0.311901      0.120447     -0.084072
O      13.53897     11.52270      7.07823        -0.457219     -0.119752      0.056341
O       1.92844     11.45231     11.42709        -0.413727      0.896346      0.033518
O      13.49476     11.51924     11.61432        -0.412345      0.276513     -0.645639
O       5.66630      3.81326      2.61470         0.320431     -0.386621      0.501958
O       5.90106      3.75692     15.88667        -0.633772      0.360793     -0.198003
O       5.85395     15.34806      2.92693        -1.215222     -0.025038     -0.923115
O       5.73899      0.01682     15.70355         0.001499     -0.870191     -0.027003
O       5.65696      3.96689      7.20305         0.776503     -0.463209     -0.568549
O       5.75118      0.07717      7.09906         0.261190     -0.591687      0.333268
O       5.78649      3.89409     11.37894         0.004418     -0.184576      0.025680
O       5.76320     15.35252     11.45290         0.086756      0.543241     -0.366946
O       5.80551      7.67551      2.80217        -0.183551      0.053869     -0.129702
O       5.76350      7.62431     15.94252        -0.420044     -0.361449     -0.366888
O       5.65989      7.70515      6.93323        -0.130613      0.004185      0.034234
O       5.83148      7.68725     11.55791        -0.284048      0.258724      0.048053
O       5.76000     11.55957      2.76424        -0.049361     -0.477798     -0.032853
O       5.70041     11.47421     15.61454         0.165560      0.953064      0.817276
O       5.82077     11.54927      7.22461        -0.449508     -0.121574     -0.090589
O       5.70141     11.47804     11.24903         0.488262      0.059981      0.111560
O       9.56110      3.78178      2.56026         0.496594      0.020376      0.729119
O       9.43914      3.77230     15.75353        -0.038111      0.080857      0.360568
O       9.66917     15.30424      2.82596        -0.440965      1.219479     -0.417433
O       9.64473     15.32232     15.72210        -0.148869     -0.306349      0.189189
O       9.56248      3.90170      7.19898         0.012962     -1.097296     -0.448086
O       9.51367      0.05033      7.13753        -0.078695      0.074500     -0.439265
O       9.62528      3.82892     11.25849        -0.113827      0.794363      0.554063
O       9.56906     15.35592     11.50210        -0.098322     -0.158330     -0.116071
O       9.60839      7.71628      2.81666         0.144291     -0.927330     -0.300485
O       9.64482      7.62010     15.87992        -0.579639      1.477843     -0.287014
O       9.58129      7.75534      7.10211         0.226356     -0.538715     -0.164083
O       9.70204      7.68670     11.43341        -0.322728      0.054792      0.145737
O       9.55301     11.45373      2.67406        -0.159544      0.498353      0.448147
O       9.41725     11.50552     15.91240         1.033668      0.225444     -0.421623
O       9.49975     11.53570      7.21532         0.850056      0.182822     -0.700738
O       9.59708     11.53129     11.45708         0.166023     -0.027998     -0.106074
