  # total energy = -7878.99107763 
CRSYTAL
PRIMVEC
    15.6000000000000000    0.0000000000000000    0.0000000000000000
     0.0000000000000000   15.6000000000000000    0.0000000000000000
     0.0000000000000000    0.0000000000000000    17.640000000000000
PRESSURE
-3.35701 -3.09984 -5.14423 0.0002 -0.299418 -0.037135
PRIMCOORD
320 1
Pb       3.88441      3.92113      4.27286        -0.038722      0.094221     -0.088313
Pb       3.77256      3.73181     17.54582         0.718342      0.523977      0.643563
Pb       4.09065      0.09678      4.35700        -0.508856     -0.053102      0.913101
Pb       3.98712     15.49377     17.47531         0.081230      0.433018      0.149999
Pb       0.01400      3.89227      4.29910        -0.105245     -0.277947      0.524988
Pb      15.50231      3.81803     17.59075        -0.250855      0.277161      0.065008
Pb      15.58657     15.56103      4.30839         0.138742      0.500768      1.081281
Pb       0.20979     15.49872     17.52544        -0.714686      0.287644      0.277049
Pb       3.94723      3.80549      8.70005         0.057350      0.030765      0.837476
Pb       3.86108     15.56537      8.74411        -0.002815     -0.048799      0.097734
Pb       0.02206      3.78735      8.64232        -0.456240      0.517140      1.183805
Pb       0.05314     15.51865      8.96451         0.185053     -0.111346     -0.280585
Pb       3.70672      4.10807     13.06527         0.577212     -0.853730      1.387322
Pb       3.81741      0.01059     13.17637         0.111799     -0.093063     -0.268064
Pb      15.48832      3.82656     13.20128         0.355152      0.060501     -0.100973
Pb       0.02575      0.00567     13.10619        -0.514895      0.131083      0.664515
Pb       3.81391      7.77703      4.17665         0.028626     -0.345700      1.050955
Pb       3.71518      7.79104     17.55502         0.424092     -0.414073      0.342429
Pb      15.47778      7.73651      4.43287        -0.052086      0.389522     -0.244764
Pb      15.44572      7.76430      0.03036         0.122685     -0.180143     -0.161350
Pb       3.86128      7.76577      8.73145         0.078830     -0.050906      0.290254
Pb       0.07243      7.74027      8.67092        -0.597377      0.043997      0.537796
Pb       3.87401      7.84349     13.16620        -0.275589      0.009522      0.614189
Pb      15.34722      7.83677     13.17705         0.681845     -0.269767      0.393782
Pb       3.88621     11.67104      4.27766         0.578336     -0.391418      1.237545
Pb       3.93502     11.63109     17.55650        -0.274954      0.015422      0.466498
Pb      15.55725     11.60132      4.39576         0.012767      0.093823      0.848295
Pb      15.57722     11.57211      0.13207        -0.356726      0.140543     -0.193960
Pb       3.89749     11.69259      8.62568         0.438472      0.008457      0.910773
Pb       0.02361     11.59638      8.78706        -0.347456      0.285268      0.441520
Pb       3.91156     11.64101     13.23073         0.250335     -0.333471     -0.716071
Pb       0.11256     11.60090     13.20942        -0.195120      0.061706     -0.064821
Pb       7.83371      4.08135      4.28110        -0.437361     -0.327313      0.534301
Pb       7.80380      3.79927     17.46228        -0.114248     -0.098223      0.903848
Pb       7.99081      0.00438      4.30316        -0.520948      0.195589      0.332571
Pb       7.90549     15.41106     17.61489        -0.283486      0.674528     -0.038402
Pb       8.01263      3.89745      8.66205        -0.833959     -0.211401      1.172915
Pb       7.75403     15.49966      8.64574        -0.268379      0.386492      0.734085
Pb       7.64413      3.85610     12.99046        -0.580681      0.558300      1.583174
Pb       7.68508     15.43951     13.19917         0.438475      0.513094      0.030151
Pb       7.66272      7.87798      4.29664         0.384173     -0.359711      0.796077
Pb       7.82658      7.80106     17.51729        -0.134396     -0.120224      0.735653
Pb       7.86250      7.78374      8.75169        -0.097777      0.008573      0.261689
Pb       7.80856      7.67890     13.11466        -0.620803     -0.291486      0.754263
Pb       7.75138     11.76455      4.33072        -0.287849     -0.047745      0.265810
Pb       7.75267     11.75645      0.02885        -0.014276     -0.771738     -0.136181
Pb       7.72262     11.65193      8.85971        -0.536720     -0.018868     -0.200556
Pb       7.81688     11.52033     13.20804        -0.037373      0.282946      0.282234
Pb      11.54298      4.00547      4.34016         0.339913     -0.349556      0.277512
Pb      11.69957      4.00966     17.47355         0.137892     -0.728342      0.644240
Pb      11.77913      0.03413      4.35464        -0.317682      0.416763      0.594310
Pb      11.74219      0.01334     17.51403         0.144937      0.317110      0.270330
Pb      11.70966      3.91493      8.76180         0.103421     -0.546562      0.241771
Pb      11.62069     15.51666      8.80722        -0.422618      0.978461      0.948392
Pb      11.56046      3.91946     13.17763         0.227840     -0.511468      0.902352
Pb      11.74024     15.55981     13.19359        -0.189976     -0.141095     -0.053783
Pb      11.64060      7.83133      4.32271        -0.128500     -0.097066      0.618180
Pb      11.74197      7.89300     17.58696        -0.105014     -0.081669      0.791591
Pb      11.79462      7.74112      8.76690        -0.032384     -0.120063      0.282752
Pb      11.67856      7.85054     13.18478         0.012599      0.204620      0.831122
Pb      11.75888     11.89649      4.49288        -0.405578     -0.544135      0.035582
Pb      11.64025     11.82050      0.03094         0.544580     -0.755749      1.013878
Pb      11.61786     11.72680      8.69734         0.093184     -0.137359      1.372452
Pb      11.82731     11.71415     13.13889        -0.554286     -0.322166      0.716449
Ti       1.94111      1.88747      2.34489         0.256452      0.476891     -0.895319
Ti       1.97520      1.90845     15.56005        -0.664160      0.449577     -1.778039
Ti       1.95821     13.61195      2.54141        -0.080843      0.140899     -0.689925
Ti       1.93456     13.60120     15.57819        -0.371822     -0.469020     -1.633853
Ti      13.61639      1.98956      2.35886        -0.478026      0.526241     -1.105671
Ti      13.71435      1.84829     15.58414        -0.585314      0.955549     -0.043322
Ti      13.70033     13.67697      2.47879        -0.994559     -0.187694     -1.234180
Ti      13.66896     13.56029     15.74539         0.618399      0.355274      0.015749
Ti       1.88062      1.95027      6.78344         0.690802     -1.227105     -2.078955
Ti       1.83307     13.57347      6.88918         0.213474      1.244991     -1.546010
Ti      13.67795      1.82101      6.85007        -1.322107      1.136503     -1.114379
Ti      13.53794     13.66784      6.97126         1.310739      0.304716     -1.492210
Ti       1.96864      1.91345     11.31512        -0.809343      0.786069     -0.833939
Ti       1.94157     13.57891     11.25201         0.540082      0.010930     -0.361279
Ti      13.53717      1.95958     11.24375         0.784357     -0.420151     -0.012494
Ti      13.71862     13.56579     11.24023        -0.706301      0.920077     -1.317043
Ti       1.75056      5.83847      2.41300         0.816976     -0.571652     -1.318914
Ti       1.84230      5.74690     15.71528         0.306384      1.698160     -1.126518
Ti      13.52972      5.83557      2.44934        -0.170656      1.237555     -1.895388
Ti      13.53653      5.87065     15.58521         1.662591     -0.299311     -1.140845
Ti       1.96473      5.79997      6.86250        -0.097102      0.132959     -2.020461
Ti      13.60018      5.80980      6.80987         0.503041      0.067690      0.005724
Ti       1.85117      5.91281     11.18137        -0.619375     -0.242045     -0.917995
Ti      13.56944      5.76894     11.34392         1.190453      0.786263     -0.841612
Ti       1.84006      9.71659      2.45402        -0.569036     -0.142431     -0.572708
Ti       1.85125      9.75144     15.66193         0.136164     -0.825403     -0.434710
Ti      13.48982      9.80810      2.59262         0.600870     -0.615629     -1.578100
Ti      13.64257      9.76992     15.65134        -0.439502      0.158973     -1.565448
Ti       1.90453      9.75335      6.82560         0.170919     -0.408929     -2.378440
Ti      13.51913      9.85613      6.80908         0.932917     -2.197806     -1.779969
Ti       1.84958      9.73649     11.11285         1.100960     -0.387166      1.196253
Ti      13.57700      9.73798     11.17566         0.209989     -0.388803      1.104243
Ti       5.89746      1.92074      2.37027         0.197136      0.973208     -1.076785
Ti       5.90557      1.92477     15.50106        -0.028081      0.179782     -0.278953
Ti       5.78264     13.70743      2.41694         1.484456     -0.444758     -0.362063
Ti       5.82540     13.62252     15.51793         0.337266     -0.293125     -1.336640
Ti       5.79513      1.92590      6.79810         0.983928     -0.573580     -1.211942
Ti       5.75268     13.57680      6.74534        -0.036334     -0.074271     -0.992772
Ti       5.78111      1.86794     11.19246         0.164427      0.289861     -1.025193
Ti       5.85678     13.58514     11.26512        -0.296795     -0.563544     -1.251383
Ti       5.75956      5.86015      2.34399         1.029902     -0.350626     -1.706314
Ti       5.82141      5.75371     15.78093        -1.091665      0.813032     -2.622956
Ti       5.84666      5.77303      6.85934        -0.010547      0.238594     -1.810779
Ti       5.72058      5.83490     11.16119         0.921842     -1.209445     -0.767411
Ti       5.78303      9.71072      2.36943         0.443506      0.781399     -2.112599
Ti       5.82894      9.68739     15.76592        -0.028959     -0.673391     -1.131487
Ti       5.82352      9.62329      6.81202         0.610462      1.178724     -1.650589
Ti       5.84546      9.64687     11.26914        -1.303210      0.780839     -1.725622
Ti       9.74670      2.03937      2.33922         0.486121     -0.246256     -0.302632
Ti       9.77301      1.87671     15.61345        -0.182557     -0.028004     -1.422419
Ti       9.80385     13.70122      2.49086        -0.302014     -0.728790     -0.830463
Ti       9.73956     13.55820     15.71817         0.942760      0.176334     -2.446801
Ti       9.71812      1.93929      6.80709         0.077781     -0.298607      0.019680
Ti       9.65847     13.56238      6.84877        -0.519880      0.956711     -2.420513
Ti       9.65698      1.94900     11.36169        -0.260104     -1.005623     -2.034875
Ti       9.74463     13.57109     11.36276         0.066331      0.852379     -0.841483
Ti       9.69049      6.00245      2.44381        -0.518341     -1.101998     -1.643055
Ti       9.71474      5.84213     15.66210        -0.064745      0.192205     -0.448750
Ti       9.79746      5.90504      6.79501        -0.624439     -0.298306     -2.571668
Ti       9.77077      5.84300     11.34048        -0.610361     -0.153238     -2.222183
Ti       9.62582      9.85350      2.52904         1.499655     -0.331296     -1.216832
Ti       9.83720      9.79347     15.76652        -0.623582     -0.907485     -2.052072
Ti       9.75013      9.76664      6.75417        -1.362328     -0.909753     -1.142879
Ti       9.69372      9.70455     11.20103         0.572325      0.227455      0.443234
O       1.97292      1.76660      0.51912        -0.127522      0.098560      1.720264
O       1.95077      1.94714     13.68883        -0.008574     -0.010749      1.983239
O       1.86536     13.59786      0.77158         0.209412      0.280765      0.410980
O       1.85853     13.62076     13.76243         0.418829     -0.269200      1.326728
O      13.58516      2.00629      0.55818         0.090543     -0.223272      1.512722
O      13.74931      1.91828     13.81503        -0.377784     -0.050945      0.303439
O      13.66420     13.65135      0.69704         0.338258      0.215423      0.893993
O      13.66240     13.52240     14.02661        -0.107808     -0.145256     -0.821115
O       1.84331      2.13936      4.97614         0.329390     -0.707762      1.228042
O       1.85400     13.59491      5.12258        -0.171792     -0.209227      0.468228
O      13.50161      1.88345      5.06037         0.638863     -0.115810      1.726743
O      13.47975     13.72643      5.16690         0.138746      0.051402      0.956050
O       2.02103      1.75699      9.54351        -0.418043      0.241663     -0.305708
O       1.84870     13.56919      9.47690         0.102600      0.341403      0.223328
O      13.53904      2.08285      9.49874         0.213788     -0.413317      0.131585
O      13.62472     13.57985      9.44328        -0.128692     -0.049566      0.387194
O       1.68869      5.85638      0.65001         0.179809      0.142358      0.568351
O       1.95863      5.94803     13.94238        -0.277274     -0.668667      0.819521
O      13.51116      6.11513      0.63349         0.156027     -0.877276      1.149246
O      13.60610      5.82529     13.78043        -0.092678     -0.004529      0.982710
O       1.91552      5.74016      5.00918         0.081282      0.155031      1.472051
O      13.62267      5.73275      5.08441         0.033659      0.313591     -0.554167
O       1.98593      5.89745      9.38092        -0.272619     -0.086143      0.385514
O      13.53816      5.89282      9.57810        -0.209407     -0.144162     -0.245052
O       1.80175      9.79566      0.67160         0.100068      0.159109      1.104883
O       1.81345      9.66946     13.87197         0.170943      0.476481      0.934567
O      13.57350      9.75080      0.79585         0.067181      0.275848      0.513606
O      13.61272      9.64346     13.80876         0.242840      0.856890      0.996717
O       1.85383      9.69518      4.96396         0.064846      0.068016      1.716411
O      13.58728      9.83211      4.99306         0.099072     -0.388069      1.125279
O       1.91500      9.67850      9.39222        -0.041565      0.359299     -1.190334
O      13.55621      9.72657      9.46765        -0.025160     -0.045718     -1.281864
O       5.87622      1.94945      0.61334        -0.254955     -0.578555      0.304329
O       5.95638      1.91232     13.75257        -0.477598     -0.079435      0.261213
O       5.79940     13.91474      0.63119         0.120512     -0.407456      0.417750
O       5.93091     13.55152     13.68026        -0.329143     -0.073527      1.840698
O       5.80019      1.81770      4.99236        -0.028975      0.458637      0.780526
O       5.77386     13.60760      4.94473         0.106800     -0.000879      0.706307
O       5.82303      1.86104      9.39388        -0.303438     -0.103246      0.852660
O       5.83887     13.58171      9.45748         0.141360     -0.204292      0.820670
O       5.85422      5.90751      0.55556        -0.110110     -0.218017      0.766690
O       5.79700      5.78426     13.92490        -0.061154      0.190610      1.462877
O       5.78378      5.83891      5.03370         0.207671     -0.301186      1.317274
O       5.71455      5.63154      9.37891        -0.266354      0.970605      0.847819
O       5.72802      9.71855      0.53960         0.373337      0.232673      1.300434
O       5.64510      9.63732     13.97213         0.254144      0.455782      0.375543
O       6.02436      9.86617      5.02630        -0.608633     -0.991040      0.832617
O       5.86357      9.63894      9.45417         0.083987      0.000858      0.704271
O       9.76867      1.98612      0.58755         0.177132     -0.251779     -0.133306
O       9.60267      1.90855     13.84959         0.419258     -0.011307      0.228009
O       9.83413     13.60229      0.68483        -0.387905      0.295621     -0.043689
O       9.79025     13.50850     13.92280        -0.058444     -0.070080      0.708257
O       9.67153      1.82879      5.07267         0.304134      0.333452     -0.087655
O       9.71428     13.50313      4.97306        -0.105509      0.605699      2.528610
O       9.66203      1.97728      9.54516        -0.033470      0.067201      1.112239
O       9.76241     13.63216      9.60236         0.102103     -0.367364     -0.492212
O       9.69216      5.95128      0.64231         0.119662     -0.310452      0.316241
O       9.75200      5.80859     13.90122        -0.235527      0.167188      0.356147
O       9.75069      5.85352      4.89664        -0.107815     -0.046990      2.170479
O       9.85342      5.88058      9.53243         0.064555     -0.137136      0.729500
O       9.73631      9.75718      0.74607        -0.115168      0.410481      0.117913
O       9.81412      9.80936     13.97876        -0.152126     -0.194437      0.720763
O       9.60090      9.66403      4.97266         0.456712      0.351041      1.102260
O       9.61642      9.70311      9.46388         0.267554      0.059892     -0.077898
O       3.88418      1.98951      2.69819        -0.106567     -0.584354      0.313895
O       3.79903      1.98245     15.94987         1.153900     -0.423028     -0.104065
O       3.97620     13.48825      2.86583        -1.510100      1.132303     -0.532213
O       3.94306     13.59471     15.98758        -0.212238      0.757558     -0.242185
O      15.57399      1.96817      2.74870         0.227324     -0.257379     -0.147479
O      15.59654      2.05099     16.02836         0.500139     -0.523955     -0.176903
O      15.52581     13.60982      3.03834         0.516873      0.294301     -0.894086
O       0.06795     13.58038     16.03929         0.445620      0.252121      0.337925
O       3.91068      1.79582      7.12641        -0.801714      0.183715      0.217296
O       3.79309     13.63409      7.14424         0.237427     -0.311798      0.384886
O       0.02015      1.88307      7.21028        -1.017862      0.012497      0.076605
O      15.44921     13.60809      7.38571         0.282733     -0.224232     -0.316133
O       3.86385      1.84849     11.55465         0.636783      0.035272      0.463678
O       3.91578     13.59169     11.57332        -0.649252      0.112250      0.435821
O      15.53025      1.95577     11.67380        -0.191923     -0.167496     -0.373468
O       0.01918     13.67412     11.59724         0.043338     -0.539782      0.156929
O       3.87159      5.89069      2.74874        -0.381072      0.090250      0.019941
O       3.80022      5.77388     16.06613         0.000660      0.199884      0.450790
O      15.47533      5.77711      2.83879         0.673273      0.646758      0.112190
O      15.43504      5.90093     16.03189         0.912151     -0.171623      0.218069
O       3.86679      5.79675      7.20155        -0.496100     -0.253933      0.139366
O       0.01197      5.82723      7.21610         0.285852      0.048251     -0.000436
O       3.75689      5.87497     11.68594         0.608222      0.701964     -0.811783
O      15.55714      5.74461     11.68724         0.172417      0.700620     -0.293345
O       3.89622      9.65701      2.75077        -0.710196      0.362411     -0.003438
O       3.77622      9.71625     16.22373         0.291637      0.245087     -0.677641
O      15.52038      9.70890      2.85809         0.672755      0.467948      0.146868
O      15.50723      9.74288     16.09271         1.041142      0.828204      0.125421
O       3.93245      9.83935      7.06377        -0.876361     -0.827822      0.421016
O       0.00639      9.73855      7.28074        -0.562425     -0.072765     -0.447049
O       3.86125      9.78396     11.58740         0.064925     -0.626087      0.318852
O      15.55685      9.72396     11.60704        -0.472232      0.308483     -0.209969
O       7.86135      1.81310      2.59613        -0.467122      0.202147      0.716634
O       7.74144      1.88291     16.02194         0.697480      0.111892      0.042006
O       7.81081     13.73043      2.72686        -0.208744     -0.242199      0.131180
O       7.87590     13.54176     16.04739        -1.140786      0.225994      0.216605
O       7.75717      2.03400      7.20252         0.292363     -0.812550     -0.017275
O       7.69297     13.51240      7.23655         1.520602     -0.001871     -0.183028
O       7.67472      1.99828     11.65852         0.128827     -0.848079     -0.463622
O       7.83853     13.49503     11.59549        -0.457318      0.292164      0.459491
O       7.77133      5.83296      2.87180        -0.274880      0.557851     -0.340661
O       7.74778      5.77976     16.08595         1.207972      0.183967     -0.325738
O       7.78070      5.91498      7.26467         0.314052     -0.586561     -0.404586
O       7.75003      5.84538     11.49460        -0.286394      0.227446      0.392028
O       7.79656      9.81196      2.77558        -1.075857     -0.097957      0.075497
O       7.72758      9.82078     16.00439         0.322993     -0.149716      0.495511
O       7.82308      9.67805      7.19692        -0.243492      0.068747      0.412561
O       7.74772      9.66171     11.64639         0.679179     -0.131487      0.204361
O      11.71145      2.11589      2.82440        -0.077498     -0.664549     -0.235911
O      11.74582      1.91964     15.94558        -0.277137     -0.488609      0.053861
O      11.66297     13.55078      2.88564         1.066662      0.846648     -0.107518
O      11.77468     13.59068     16.18594        -0.827488      0.441396     -0.482410
O      11.61481      1.92758      7.35705         0.509529     -0.030370     -0.554231
O      11.60439     13.70437      7.35805        -0.123411     -0.887731     -0.525017
O      11.60782      1.85833     11.65237         0.373965      0.565057      0.272369
O      11.79937     13.62542     11.73838        -0.997840     -0.178369     -0.044945
O      11.61781      5.86490      2.83342         0.428936     -0.040213      0.068491
O      11.71683      5.98349     15.96876        -1.228967     -0.666633      0.297475
O      11.67724      5.79905      7.16365        -0.033350      0.166169      0.253663
O      11.70295      5.77218     11.81357        -1.293997      0.053732     -0.525554
O      11.66833      9.71549      2.97162        -0.727103      0.401065     -0.195627
O      11.74483      9.83210     16.09893        -0.407205     -0.001131      0.045041
O      11.62583      9.78185      7.21121         0.470573     -0.256506     -0.084065
O      11.66228      9.64683     11.64625        -0.207714      0.617360     -0.544002
O       1.99344      3.86833      2.62578        -0.517516     -0.144400      0.463938
O       1.90441      3.88556     16.20763        -0.561709     -0.322440     -0.963311
O       1.93720     15.50145      2.94634         0.053452      0.776412     -0.659101
O       1.97987      0.02309     15.87477        -0.224250     -0.833172      0.369162
O      13.64479      3.99152      2.76659        -0.275369     -1.140013     -0.085359
O      13.61012      3.93643     16.08777        -0.189733      0.237026     -0.489665
O      13.57306      0.06284      2.89205         0.325768     -0.420027     -0.686973
O      13.76701      0.01946     16.06178        -0.312722     -0.685166      0.039148
O       1.91978      3.77925      7.19334         0.265062      1.033651      0.232862
O       1.78419     15.51094      7.23994         0.361570      0.435725      0.230619
O      13.68628      3.90878      7.26079        -0.240511     -0.721587      0.027987
O      13.57610     15.59184      7.38320         0.198610      0.035782     -0.332613
O       1.89562      3.90794     11.58406         0.154358      0.110487     -0.097976
O       1.88122      0.02388     11.71875         0.507004     -1.167362     -0.334686
O      13.61026      3.89035     11.65070        -0.456089     -1.015173      0.264988
O      13.63548     15.48947     11.64794        -0.008414      0.993947     -0.049271
O       1.78523      7.75933      2.75886         0.422801      0.411182      0.334769
O       1.86182      7.84813     16.16361        -0.197177     -0.325929     -0.321098
O      13.55795      7.82407      2.84934         0.374084     -0.522521      0.790183
O      13.63072      7.94152     15.90367        -0.214899     -1.468438      0.720953
O       1.97404      7.82732      7.19123         0.007415     -0.638509     -0.019864
O      13.58521      7.78235      7.14854         0.108049      0.074542      0.259634
O       1.85659      7.86637     11.41696         0.104045     -1.076721      0.552721
O      13.50333      7.74529     11.69593         0.642450      0.577774     -0.395977
O       1.88311     11.72589      3.02435         0.056242     -0.775550     -1.053501
O       2.05644     11.72938     15.99978        -0.635397     -0.317426     -0.025555
O      13.58913     11.78629      2.92139         0.245150     -0.438631     -0.142084
O      13.68632     11.71742     16.26691         0.057595     -0.372756     -0.478529
O       1.86973     11.63661      7.32244         0.013581      0.226068     -0.386616
O      13.59666     11.63896      7.07616        -0.303762      1.458033      0.904816
O       1.99171     11.66852     11.60267        -0.757366      0.218113      0.264513
O      13.64563     11.68425     11.57990         0.136225     -0.774003      0.187792
O       5.89247      3.97486      2.65281        -0.215009     -1.160271      0.611040
O       5.79554      3.83022     16.00537         0.174143     -0.272355      0.247058
O       5.85889      0.04081      2.88907        -0.337404     -0.565371     -0.545878
O       5.93493     15.55987     15.76468        -0.643767     -0.579067      0.737601
O       5.79972      3.81363      7.21352        -0.125505      0.360920     -0.325367
O       5.85072     15.43936      7.13909         0.008686      1.179962      0.270528
O       5.69460      3.91432     11.57448        -0.021876     -0.106486     -0.107851
O       5.78632     15.48382     11.60373         0.501920      0.858266      0.133415
O       5.94669      7.81320      2.72067        -0.620047      0.322136      0.238694
O       5.81445      7.75936     16.01745        -0.087949      0.270361      0.402141
O       5.74952      7.67139      7.17387         0.159884      1.204719      0.222080
O       5.83077      7.71110     11.70132        -0.383205      0.292700     -0.349975
O       5.85480     11.67901      2.70395         0.077013      0.113136     -0.081777
O       5.78468     11.73913     16.07802         0.240133      0.063465     -0.044078
O       5.75110     11.65441      7.12436         0.598043     -0.046820      0.621741
O       5.84541     11.57098     11.62979         0.126333      0.252759      0.275859
O       9.66548      3.92227      2.80725         0.211720     -0.515644     -0.090134
O       9.84694      3.76118     15.95550        -0.423411      1.760058      0.306497
O       9.88063     15.58571      2.84681        -0.188864      0.475744     -0.323175
O       9.76179     15.50998     15.89895         0.082537      0.046704      0.923937
O       9.74193      3.93210      7.11455         0.086380     -0.046370      0.114610
O       9.68511     15.54545      7.21094        -0.208049     -0.494159     -0.050484
O       9.54298      3.91336     11.67330         1.571067     -0.250012     -0.049290
O       9.66644     15.56836     11.68649         0.115213     -0.179762      0.329568
O       9.63875      7.79482      2.72773         0.337313      1.263151      0.734142
O       9.79966      7.78585     16.11835        -0.628521     -0.113454     -0.479361
O       9.76459      7.75364      7.17057         0.199687      0.544542      0.242138
O       9.71614      7.73670     11.65216         0.139933      0.581086      0.125301
O       9.79596     11.72141      2.96048        -0.453850     -0.071351     -0.517388
O       9.75235     11.61221     16.13163        -0.047963      1.467557      0.549296
O       9.76393     11.65212      7.25772        -0.303487      0.654369     -0.177880
O       9.71795     11.61749     11.67124         0.303030     -0.319759     -0.137931
