  # total energy = -7877.15809664 
CRSYTAL
PRIMVEC
    15.2000000000000000    0.0000000000000000    0.0000000000000000
     0.0000000000000000   15.2000000000000000    0.0000000000000000
     0.0000000000000000    0.0000000000000000    17.000000000000000
PRESSURE
8.28397 7.78212 0.877082 -0.055473 -0.176477 0.015693
PRIMCOORD
320 1
Pb       3.93068      3.70132      4.18112        -0.363062      0.207099      0.352480
Pb       3.56643      3.64350     16.93876         0.776716      0.667858     -0.104381
Pb       4.01465     14.92316      4.11694        -0.681190      0.912156      0.674559
Pb       3.67315     15.12955     16.95090         0.229553      0.522254      0.436613
Pb      15.17529      3.59661      4.26018        -0.150939      0.030085     -0.349657
Pb      15.05042      3.89916     16.96069         0.371171     -0.669588      0.202487
Pb      15.16106     14.89747      4.10995        -0.171949      0.814156      0.554413
Pb      15.09424      0.03000      0.06399         0.158829      0.247441     -0.067561
Pb       3.48077      3.85879      8.53210         0.961947      0.250928      0.079782
Pb       3.78368      0.15313      8.20716         0.234792     -0.848834      1.762880
Pb      15.07172      3.82766      8.33841         0.345635     -0.143761      1.080861
Pb       0.16938      0.12448      8.28912        -0.579672     -0.551436      0.901980
Pb       3.74596      3.76374     12.80906        -0.281713      0.251380     -0.347154
Pb       3.80044     15.18816     12.69894        -0.442983     -0.198438     -0.681045
Pb      15.11918      3.82044     12.80945        -0.060805     -0.079115     -0.614128
Pb      15.05048     15.11967     12.61941         0.846834      0.312642     -0.104094
Pb       3.90308      7.42769      4.13742        -0.470890      0.405313      0.639325
Pb       3.65547      7.46870     16.97318         0.524833     -0.138206     -0.703128
Pb       0.00773      7.34992      4.24655        -0.431960      1.269360      0.127491
Pb      15.12182      7.53804      0.20713         0.247207      0.519640     -0.629249
Pb       3.76499      7.48715      8.58889        -0.301969      0.181444     -0.206746
Pb       0.07282      7.69413      8.47866        -0.282685     -0.181026      0.476687
Pb       3.77532      7.76613     12.90633         0.524109      0.209324     -0.347165
Pb      15.17631      7.78206     12.92218         0.076050     -0.108457     -1.109336
Pb       4.09695     11.31608      4.13207        -0.602663     -0.247527      0.587188
Pb       3.62995     11.38752     16.66324         0.404474     -0.159067      1.454877
Pb       0.07960     11.24390      4.24611        -0.574875     -0.007996     -0.020908
Pb      15.03831     11.36070      0.02729         0.191238      0.104479      0.351277
Pb       3.81929     11.39663      8.37699        -0.099022     -0.298918      0.417145
Pb       0.12213     11.37729      8.41499        -0.034040     -0.111199     -0.126731
Pb       3.91215     11.56873     12.63357        -0.672640     -0.770980      0.328194
Pb       0.02274     11.61587     12.65952         0.546826     -0.320338     -0.055682
Pb       7.63306      3.87699      4.33568        -0.335279     -0.365217      0.404588
Pb       7.58760      3.78404     16.93499        -0.248867     -0.246614     -0.235525
Pb       7.58264      0.02257      4.23955        -0.099315     -0.292984      0.320500
Pb       7.49368     15.19741     16.92532         0.360299      0.534603     -0.121473
Pb       7.32042      3.78021      8.67217         0.559633     -0.094246     -0.366686
Pb       7.51481      0.05827      8.61026         0.379255     -0.195482      0.001836
Pb       7.61439      3.68293     12.68235         0.599497      0.862323      0.241685
Pb       7.55762     15.10914     12.73047        -0.033172      0.128709     -0.349837
Pb       7.38020      7.53056      4.19329         0.832056      0.594358      0.290354
Pb       7.75733      7.41481      0.00981        -0.703054      0.251637      0.000084
Pb       7.55973      7.50188      8.62758         0.150167      0.320651      0.050220
Pb       7.72583      7.61738     12.78755        -0.666668     -0.126447      0.097483
Pb       7.67337     11.49295      4.20551        -0.323642     -0.288887      0.542449
Pb       7.44256     11.29233     16.98705         0.937276      0.650366     -0.403113
Pb       7.65631     11.24915      8.48947         0.174345      0.583749      0.460368
Pb       7.72279     11.48492     12.81117        -0.251568     -0.851184     -0.195113
Pb      11.33430      3.79316      4.38108         0.124821     -0.614685     -0.033011
Pb      11.35748      3.93012     16.93176        -0.211248     -0.490138     -0.055675
Pb      11.27674     15.18289      4.29044         0.230953     -0.071043     -0.023225
Pb      11.27389      0.09703      0.04889        -0.360956     -0.110517     -0.164582
Pb      11.33081      3.78133      8.48519         0.164891     -0.129037      0.453330
Pb      11.48546     15.13749      8.65749        -0.422918      0.007466     -0.699798
Pb      11.47159      3.79046     12.61255        -0.497619      0.488567      0.320606
Pb      11.33708      0.01846     12.70337         0.078393      0.003571      0.543076
Pb      11.30969      7.38028      4.34096         0.355124      1.084424      0.012054
Pb      11.43552      7.63447      0.11909        -0.321274     -0.332074     -0.563507
Pb      11.51325      7.67465      8.45476        -0.535037     -0.146583      0.323047
Pb      11.52574      7.74955     12.73746        -0.658738     -0.658432     -0.419725
Pb      11.40963     11.51181      4.28742         0.388821     -0.372036      0.131006
Pb      11.34120     11.19856      0.11802         0.042969      1.128681     -0.394193
Pb      11.42954     11.30607      8.41475        -0.346001      0.242553      0.131592
Pb      11.50093     11.36933     12.87021        -0.543647      0.378031     -0.353202
Ti       1.91559      1.85077      2.27801        -0.724618     -0.712293      0.177110
Ti       1.83101      1.87700     14.94090        -0.577799      0.080464     -1.262498
Ti       1.86632     13.20047      2.25088        -0.323799      0.082134     -0.385181
Ti       1.78027     13.36680     15.00804         0.376854     -0.348616     -1.739551
Ti      13.22310      1.88789      2.22067         0.235465     -0.082755      0.462739
Ti      13.27254      1.91167     15.02340        -0.847093      0.244357      0.371479
Ti      13.14623     13.31840      2.22291         1.158804     -1.240560     -0.660348
Ti      13.26549     13.36969     15.05425        -1.862719     -0.551329     -0.323630
Ti       1.90706      1.90682      6.32773        -0.153474      0.358849     -0.958990
Ti       1.96448     13.26399      6.37711         0.100614     -0.678404     -0.494654
Ti      13.29360      1.84002      6.42122        -0.722689     -0.384797     -0.547515
Ti      13.38285     13.31593      6.62210        -1.457116     -0.607742     -1.279501
Ti       1.86061      1.97080     10.77829        -0.208047     -0.386738      0.530779
Ti       1.95304     13.33916     10.56529        -0.191800     -0.321233      0.930678
Ti      13.29729      1.85705     10.68273        -0.774366      1.358872     -1.402681
Ti      13.26298     13.30265     10.63809         0.847572     -0.581416     -1.236655
Ti       1.89102      5.62424      2.24472         0.211250      0.004180     -0.399806
Ti       1.75919      5.73843     14.89947         1.856360      0.304344      1.248290
Ti      13.29605      5.57988      2.34138        -0.305293      0.956781      0.055831
Ti      13.27893      5.77569     15.00838        -0.817447     -0.488740     -0.199395
Ti       1.80759      5.71318      6.45023         2.318031      0.088772     -0.270156
Ti      13.32567      5.68673      6.56730        -1.129472      0.673926     -0.686820
Ti       1.84034      5.79711     10.90078        -0.019824     -1.366232     -1.109073
Ti      13.29267      5.71300     10.69975         0.375212      0.628574     -1.392846
Ti       1.96958      9.44662      2.20449        -0.369320      0.119148      0.142928
Ti       1.82472      9.59619     14.91815        -0.271197     -1.204955     -0.752982
Ti      13.26735      9.42335      2.22596        -0.425310      0.313031      0.597826
Ti      13.31344      9.50790     14.95911         0.020995      0.148705      1.953663
Ti       2.01747      9.40403      6.35802        -0.853941      0.264345      0.582202
Ti      13.38354      9.49183      6.48183        -0.396769     -0.117870     -1.256943
Ti       1.84374      9.55270     10.75177         1.134114      0.538321     -0.143595
Ti      13.31609      9.59929     10.66534        -0.230051     -1.358835     -0.457956
Ti       5.73512      1.90122      2.19894        -1.094076     -0.545611     -1.232883
Ti       5.60345      1.99465     14.85665         1.429856     -0.837223      0.688374
Ti       5.63275     13.23421      2.00833         0.943197      0.816943      0.602339
Ti       5.61661     13.39037     14.96171         1.326138     -0.568118      0.089449
Ti       5.73563      1.88652      6.55076         0.410993      0.821832     -0.698789
Ti       5.77503     13.26521      6.57949        -0.256005     -0.142017     -1.052488
Ti       5.70925      1.88520     10.87600        -0.751970     -0.831704     -1.477498
Ti       5.75658     13.22078     10.62462        -0.415453      1.281014     -0.026577
Ti       5.69688      5.63684      2.11895        -0.877009      0.101259     -2.179545
Ti       5.65271      5.68625     14.87759        -0.322271      0.568641      0.706699
Ti       5.68256      5.68555      6.58756        -1.318431     -0.440375     -0.385338
Ti       5.59870      5.69658     10.78279         0.927615      0.370759     -0.389145
Ti       5.73456      9.50352      2.05688         0.470597     -1.074733      0.357281
Ti       5.72197      9.49046     15.07293        -0.159498     -0.762884     -1.630481
Ti       5.74200      9.39163      6.59715         0.202599      1.694497     -1.564303
Ti       5.72649      9.49808     10.81683        -0.141671     -0.882108     -0.998035
Ti       9.41005      1.91986      2.30632         0.602345     -1.156478     -1.986936
Ti       9.47642      1.91640     14.95386        -0.594115     -0.257687      0.091678
Ti       9.40035     13.29668      2.19133        -0.191501      0.766252     -0.405557
Ti       9.41844     13.27346     14.99002         1.172051     -0.355325      0.122144
Ti       9.53580      1.85990      6.64068        -1.241320     -0.074639     -0.430472
Ti       9.53384     13.31955      6.63642        -0.030800     -0.436917      0.001908
Ti       9.53175      1.85839     10.74065        -0.119919      1.084705     -0.692090
Ti       9.56142     13.28828     10.72779        -0.537574     -0.972776     -1.756090
Ti       9.46677      5.68556      2.35097        -0.213246     -0.010970     -1.283439
Ti       9.45185      5.66124     14.88118         0.487775      0.261388     -1.419461
Ti       9.45416      5.71321      6.70359        -0.404887     -0.111946     -0.810771
Ti       9.46544      5.76416     10.70318        -0.107390     -0.516355     -0.249773
Ti       9.48438      9.53606      2.30457         0.189209     -0.665682     -0.372062
Ti       9.52463      9.47457     15.10500        -0.823622      0.037032     -1.293930
Ti       9.46989      9.46411      6.47422         0.959372      0.285488     -0.723690
Ti       9.52975      9.46043     10.76625        -0.149975      1.092209     -0.998134
O       1.98774      1.76618      0.48629        -0.483211      0.217319     -0.758778
O       1.82703      1.92262     13.12776        -0.261028     -0.831808      0.920937
O       1.92215     13.17716      0.43258        -0.226561      0.307267     -0.024483
O       1.79064     13.35390     13.16097        -0.073678      0.125329      1.377768
O      13.17918      1.98505      0.43874         0.141180     -0.100628     -0.224639
O      13.23590      1.84540     13.25190         0.007553     -0.036071     -0.506993
O      13.25766     13.18348      0.42728         0.000075      0.503542     -0.015523
O      13.14918     13.39041     13.21181         0.667589      0.014869      0.393319
O       1.82920      1.94394      4.53972         0.140358     -0.048447      0.647638
O       1.88539     13.23323      4.57726        -0.017643      0.034680      0.724332
O      13.26651      1.79223      4.61261        -0.111677      0.161399      0.831258
O      13.21189     13.27766      4.78446         0.212327     -0.006110     -0.322617
O       1.87662      2.06263      8.97343        -0.284484     -0.368357      0.035499
O       1.98431     13.19857      8.82194        -0.167540      0.429977     -1.082459
O      13.07324      1.96277      8.86970         1.144187     -0.084448      0.836462
O      13.25171     13.23224      8.84182         0.282959      0.008591      0.219272
O       1.77315      5.76614      0.43794         0.267328     -0.527732      0.271431
O       1.84961      5.81546     13.14491        -0.436083     -0.323558     -0.464065
O      13.21778      5.65017      0.52827         0.251759     -0.180194     -0.046595
O      13.33550      5.68766     13.25740         0.248718      0.451557     -0.973558
O       1.86272      5.69563      4.66480         0.010328     -0.091081     -0.165670
O      13.31378      5.78663      4.72301        -0.155643     -0.416595      0.717891
O       1.86044      5.66361      9.03359         0.033901      0.015652      0.563635
O      13.37925      5.71627      8.83486        -0.159405     -0.443613      1.041927
O       1.89252      9.54227      0.41017        -0.126479     -0.229709      0.709797
O       1.87815      9.66161     13.08390        -0.642437     -0.685182      0.929225
O      13.23636      9.46757      0.33576        -0.217041      0.038049      1.046855
O      13.21501      9.54179     13.20509         0.280672     -0.392206     -1.005761
O       2.04671      9.43667      4.58997        -0.274265     -0.201357     -0.140230
O      13.39903      9.43184      4.68162        -0.286284      0.073149      0.272309
O       1.95979      9.46281      8.96182        -0.475939      0.395134      0.395368
O      13.30522      9.64499      8.86585         0.236734     -0.481781      0.443626
O       5.64950      1.96124      0.37702         0.049721     -0.128788      0.957611
O       5.69799      1.91221     13.04673        -0.156687     -0.237920      0.134278
O       5.50621     13.32480      0.25491         0.492541     -0.057650     -0.272159
O       5.83456     13.25001     13.18106        -0.270028      0.644803     -0.164186
O       5.73460      1.82772      4.74650        -0.193512      0.354927      0.178989
O       5.72872     13.34426      4.71420         0.000992     -0.538711      0.269208
O       5.65121      1.85317      9.02242         0.149053      0.126223      0.380197
O       5.69408     13.33617      8.87189        -0.204271     -0.229171     -0.594502
O       5.71283      5.67826      0.25747        -0.130229     -0.290688      2.071585
O       5.65896      5.64810     13.08300        -0.057350      0.092561      0.292473
O       5.47679      5.58274      4.76431         0.897120      0.277835     -0.083611
O       5.59183      5.77179      8.88428         0.269355     -0.303064      0.998507
O       5.79637      9.46711      0.29640        -0.643739      0.013343     -0.566907
O       5.73108      9.40841     13.23776        -0.464797      0.134305      0.403682
O       5.82128      9.50745      4.71052        -0.289054     -0.127079      1.170027
O       5.83508      9.53861      8.96033        -0.636611     -0.278527      0.905137
O       9.39930      1.88871      0.40578         0.088920      0.015846      1.377847
O       9.51425      1.99378     13.16834         0.101675     -0.369228     -0.187856
O       9.50561     13.45574      0.45524        -0.040286     -0.485524     -0.722633
O       9.46909     13.16875     13.13429        -0.059823      0.330543      0.200186
O       9.31542      1.76404      4.78572         0.745111      0.425536      0.348941
O       9.45017     13.29581      4.80849         0.091517     -0.051403     -0.418446
O       9.56049      1.84181      8.95232         0.002803      0.037083      0.180785
O       9.58130     13.27512      8.89745        -0.212834      0.024969      1.237698
O       9.43810      5.71027      0.49522         0.371520     -0.623294      1.390134
O       9.36154      5.67323     13.05068         0.512589      0.064527      1.052507
O       9.26733      5.60359      4.80409         0.960289      0.170750     -0.051871
O       9.40151      5.89832      8.82077         0.288354     -0.686213      1.437585
O       9.58040      9.53667      0.41906        -0.083243     -0.349679      0.734829
O       9.61212      9.51672     13.24010        -0.241364      0.048011      1.056674
O       9.22484      9.50783      4.66628         0.757840     -0.046362      0.183524
O       9.55247      9.41962      8.95366        -0.236658      0.025902      0.662260
O       3.76198      1.78879      2.45126         1.034584      0.199486      0.712709
O       3.72617      1.96358     15.13382         0.075919     -0.125405      0.519681
O       3.79130     13.20817      2.47701         0.239140      0.060973      0.282192
O       3.75869     13.18778     15.20625        -0.785908      0.739605     -0.247442
O      15.10395      1.87624      2.48558         0.653504     -0.073709      0.214234
O      15.12418      1.80615     15.36518         0.209215     -0.189874      0.244069
O      15.09751     13.08766      2.59543         0.278403      0.726312     -0.207988
O      15.16894     13.43956     15.37890        -1.028533      0.114705      0.052338
O       3.75483      1.94117      6.75381         0.229240      0.142363     -0.147267
O       3.84177     13.33065      6.67377        -1.218621      0.064417      0.417700
O      15.17145      1.87785      6.72351         0.927673      0.402850      0.166894
O       0.03272     13.32949      6.82688         1.178132     -0.129693      0.036067
O       3.70942      1.95127     11.08238         0.986467     -0.168174      0.363773
O       3.84596     13.22543     11.00357        -0.361015      0.132351      0.197698
O      15.09576      1.74810     11.04804         1.134431      0.452000      0.140372
O      15.15250     13.34245     10.91665         0.011331      0.218040      0.581273
O       3.82165      5.72255      2.51904        -0.954181     -0.884929     -0.059759
O       3.71161      5.57508     15.28927        -0.465342     -0.033103     -0.077368
O      15.17763      5.61256      2.72324         0.003595     -0.323825     -0.772217
O      15.15495      5.78245     15.48855         0.027268     -0.168162     -0.380123
O       3.71045      5.80783      6.78445         0.006223     -0.308292      0.588618
O      15.19551      5.75347      6.84476        -0.654550     -0.447766     -0.032625
O       3.79585      5.45370     11.04782        -0.895482      0.271334      0.207361
O      15.17826      5.57315     11.07952        -0.171393      0.874089      0.399813
O       3.91435      9.42993      2.47943        -1.553044      0.358329     -0.000085
O       3.64046      9.46493     15.24961         1.443662      0.555969      0.124711
O      15.09083      9.38130      2.45574         1.715498      0.247510      0.144148
O      15.16168      9.26314     15.32481        -0.038135      0.524932     -0.201443
O       3.79618      9.43789      6.90182         0.747737      0.076908     -0.220749
O       0.07987      9.46059      6.79029        -0.017840      0.078701      0.132539
O       3.71950      9.64497     11.12236         1.343557     -0.339911      0.119871
O      15.17350      9.46062     11.03204         0.079167     -0.021675      0.467929
O       7.53233      1.90839      2.55442         0.160892     -0.191613      0.279093
O       7.52482      1.90532     15.27433         0.356479     -0.341452     -0.022358
O       7.53090     13.16629      2.41690        -0.278822      0.194017      0.015090
O       7.57536     13.26102     15.40353        -0.881898      0.693334     -0.182472
O       7.58151      1.95090      6.93576        -0.477876     -0.226097      0.251798
O       7.54346     13.12801      6.85310         1.416210      0.573772      0.213116
O       7.65066      1.76273     11.01803        -0.540060     -0.023347      0.387713
O       7.61600     13.50616     10.89779         0.572438     -0.714182      0.692318
O       7.46492      5.69008      2.55486         1.864145     -0.264420      0.388310
O       7.57813      5.83835     15.26302        -0.298534     -0.470186     -0.097431
O       7.54423      5.72559      6.85041        -0.102315      0.003089      0.233708
O       7.53954      5.84569     10.96847         0.745719     -0.225633     -0.041557
O       7.62617      9.49597      2.44932        -1.148637     -0.386156      0.181298
O       7.61020      9.38480     15.32877        -0.518317     -0.022188      0.080104
O       7.71310      9.52381      6.95680        -2.580378     -0.251280     -0.116639
O       7.60829      9.39056     11.21081        -0.528881      0.388451     -0.464410
O      11.34700      1.82567      2.62610        -1.224125      0.128012      0.115478
O      11.31103      2.01395     15.42291         0.278369     -0.067103     -0.303578
O      11.33366     13.23592      2.57857        -0.581233      0.365512      0.420965
O      11.33944     13.18184     15.28730         0.476900     -0.075584      0.158319
O      11.39458      1.81698      6.87160         0.045580     -0.015180     -0.618091
O      11.43278     13.38342      6.82133        -0.289632     -0.299364      0.184402
O      11.39911      2.02259     11.11206         0.177660     -0.617093      0.196345
O      11.43084     13.29848     10.90892        -0.384757     -0.367631      0.984673
O      11.38081      5.50689      2.83421        -1.202809      0.807051     -0.723255
O      11.40078      5.66981     15.24312        -0.562152     -0.487463      0.426718
O      11.37439      5.64570      6.88905         0.327401      0.251133     -0.481327
O      11.38290      5.64197     10.90809         0.080160      0.374012      0.417011
O      11.33411      9.35051      2.68503         0.157282      0.231923     -0.216828
O      11.35241      9.55620     15.32414         1.323043      0.046429      0.219931
O      11.42716      9.40316      6.81037        -0.260147      0.474708     -0.231097
O      11.40791      9.42227     11.02338         0.787179      0.663437      0.438310
O       1.87036      3.74526      2.46273         0.203388      0.162993      0.268691
O       1.77569      3.72628     15.22150        -0.442751      1.004133      0.495433
O       1.87280     15.07240      2.65681        -0.363123      0.229266     -0.667258
O       1.84958     15.19590     15.44570         0.395458      0.120790     -0.260793
O      13.17536      3.75103      2.69816         0.460039     -0.359542      0.085178
O      13.34699      3.84119     15.32411        -0.057550     -0.492191      0.284188
O      13.20076     15.16856      2.56252         0.298754     -0.402232     -0.294590
O      13.06715      0.04488     15.48196         0.749283     -0.540495     -0.276248
O       1.88013      3.80484      6.78495        -0.465857     -0.112289     -0.092005
O       1.92774      0.01762      6.72423        -0.334200      0.144847     -0.150844
O      13.25868      3.74216      6.70415         0.268152      0.618751      0.158359
O      13.40093     15.18559      6.86575        -0.274372      0.611511      0.218888
O       1.80244      3.80077     11.32817        -0.050597     -0.532130     -0.653401
O       1.92134     15.11514     11.06605        -0.017004      1.750935      0.008741
O      13.30593      3.81850     11.03766         0.164694     -0.505788      0.367094
O      13.18039     15.19365     10.85147        -0.168058     -0.034351      0.833417
O       1.89452      7.50093      2.51807        -0.112207      1.280443      0.061036
O       1.90344      7.60607     15.24394        -0.097685     -0.469998     -0.102575
O      13.24810      7.48209      2.59255        -0.262850      0.144820     -0.162986
O      13.20712      7.60834     15.40724        -0.153746      0.286311     -0.201747
O       1.84353      7.57335      7.01504         0.263107      0.147047     -1.030794
O      13.30464      7.59405      6.88456         0.215251     -0.404158     -0.120624
O       1.94751      7.60511     11.13263        -0.118890      0.630047      0.144839
O      13.27579      7.64116     11.02125         0.266386     -0.674272      0.437436
O       1.85819     11.34578      2.68161         0.440863     -1.174000     -0.540444
O       1.67077     11.42933     15.25428         0.151510      0.115984      0.303180
O      13.17255     11.30427      2.49140        -0.233668      0.147790      0.336374
O      13.46059     11.39699     15.26466        -0.397630      0.038214     -0.059045
O       1.85760     11.34863      6.67391         0.474575      0.303831      0.237004
O      13.31809     11.35551      6.80966         0.091196      0.567750      0.007497
O       1.78639     11.51106     11.04201        -0.069127     -0.992729      0.036162
O      13.34957     11.37816     11.12501        -0.506494      1.129105      0.113435
O       5.68663      3.75704      2.60737        -0.367255      0.107733     -0.144377
O       5.73761      3.79234     15.22661        -0.131990      0.320614      0.071432
O       5.77280     15.10595      2.60382        -0.375256      0.439810     -0.829824
O       5.59868      0.10291     15.30872        -0.040877     -1.102285     -0.322822
O       5.67302      3.86844      6.98594        -0.255680     -1.372694     -0.343313
O       5.75100      0.03254      6.92479        -0.172564     -0.190376     -0.317809
O       5.86209      3.72367     11.10076        -0.377177      0.703211     -0.427209
O       5.64114     15.10739     11.15666        -0.125132      0.938119      0.166557
O       5.61807      7.52459      2.58402         0.795860      0.655513     -0.485026
O       5.50527      7.53326     15.33337         0.067099      0.924804     -0.393303
O       5.66916      7.60972      6.85885         0.343794     -0.219332      0.029359
O       5.56614      7.54327     11.09272        -0.427629      1.102532      0.011014
O       5.72427     11.38031      2.32226        -0.321884     -0.617679      0.518626
O       5.73457     11.45245     15.10217        -0.200319     -1.340996      1.122340
O       5.61992     11.39167      6.84496         0.100503     -0.808603     -0.000285
O       5.75359     11.38213     11.05945         0.392672     -0.000752      0.276761
O       9.33235      3.73251      2.64603         0.513735      1.022973      0.289943
O       9.33251      3.82860     15.25577         0.369742     -0.147403      0.417631
O       9.26161     15.17159      2.55158         0.915759      0.311825      0.482609
O       9.46312     15.15187     15.17488         0.202203      0.886124      0.349125
O       9.42880      3.72977      6.98469         0.407908      0.642170     -0.256099
O       9.41597     15.13080      7.04453        -0.149877      1.060443     -0.516397
O       9.45762      3.85729     11.00538        -0.325576     -0.284097     -0.111192
O       9.64145      0.00226     11.08061        -0.113086     -0.294822      0.180436
O       9.44192      7.53176      2.56026         0.057432     -0.237538      0.389578
O       9.56364      7.46249     15.47420         0.192606      1.838911     -0.346152
O       9.46428      7.61016      6.87495         0.278139     -0.517884     -0.482202
O       9.53115      7.66883     11.25290         0.186304     -1.818856     -0.344167
O       9.43766     11.41212      2.57156         0.649028     -0.467944      0.105388
O       9.35422     11.39090     15.44168         0.261182     -0.725076     -0.254114
O       9.52139     11.38172      6.94578         0.391797     -0.227917     -0.484209
O       9.49845     11.34691     11.02683        -0.255986      1.096859      0.436066
