  # total energy = -7868.48974120 
CRSYTAL
PRIMVEC
    15.010000000000000    0.0000000000000000    0.0000000000000000
     0.0000000000000000   15.010000000000000    0.0000000000000000
     0.0000000000000000    0.0000000000000000    16.400000000000000
PRESSURE
17.4909 17.7302 4.58674 0.120072 -0.040589 0.003468
PRIMCOORD
320 1
Pb       3.99939      3.68162      4.32755        -1.464903     -0.082465     -1.016281
Pb       3.82681      3.78200      0.11886        -0.241934     -0.099850     -0.114944
Pb       3.69632      0.13833      4.13868        -0.017769     -0.337138     -0.019747
Pb       3.81233      0.02431     16.35860        -0.561357     -0.182369     -0.188723
Pb      14.92141      3.63012      4.08628         0.600610      0.605311     -0.521633
Pb       0.01421      3.65666     16.34709         0.145373      0.576333      0.109717
Pb      14.95025      0.05843      4.22341         0.427575     -0.541737     -0.759889
Pb      14.89114     14.99647      0.05153         0.443306     -0.033694     -0.415783
Pb       3.81166      3.63402      8.31429        -0.536644      0.397986     -1.008776
Pb       3.84931     14.91646      8.29223        -0.703662     -0.126436     -0.508858
Pb       0.03574      3.75101      8.29653         0.260951      0.101047      0.050707
Pb      14.93984     14.88746      8.16232         0.649123      0.597534      0.123214
Pb       3.83650      3.71542     12.22359        -0.915514      0.361564      0.315109
Pb       3.74813      0.01580     12.46801        -0.071220     -0.261858     -0.651606
Pb       0.01611      3.67658     12.32812         0.234193      0.216210     -0.567066
Pb       0.01803      0.01463     12.29286         0.210285      0.089607     -0.400775
Pb       3.54990      7.57446      4.08150         0.557786     -0.559524     -0.281370
Pb       3.77631      7.41439      0.22114        -0.156908      0.308347     -0.804634
Pb      14.93011      7.49266      4.11359        -0.261020     -0.061019     -0.360706
Pb      14.96305      7.52067      0.08779        -0.079681      0.072849     -0.660585
Pb       3.69676      7.58716      8.05618         0.117320     -0.707434      0.326283
Pb      15.00753      7.54380      8.21034        -0.206687     -0.604890      0.045326
Pb       3.76823      7.58099     12.29856        -0.130039     -0.442131     -0.041180
Pb       0.04778      7.33425     12.31902        -0.274665      0.455880     -0.017748
Pb       3.57863     11.20774      4.19452         0.533661      0.681043     -0.518198
Pb       3.74317     11.01307     16.31448        -0.413595      0.748094      0.225668
Pb      14.97362     11.20060      4.10632        -0.233584      0.487884     -0.391543
Pb      14.93686     11.38362      0.08164         0.033300     -0.629400     -0.849511
Pb       3.67910     11.07273      8.24322         0.284885      1.068930     -0.117221
Pb      14.98623     11.14335      8.15334         0.239964      0.329114      0.390648
Pb       3.76949     11.29128     12.36077        -0.639820      0.033644     -0.511734
Pb       0.01136     11.28685     12.33119         0.186939     -0.255311     -0.350799
Pb       7.49769      3.70752      4.15509         0.373338     -0.033449     -0.586872
Pb       7.51848      3.85525     16.36153         0.077850     -0.436207      0.086566
Pb       7.46463     14.86201      4.23748         0.315003      0.680289     -0.775808
Pb       7.31669     14.99619     16.38396         0.973830      0.092603     -0.255484
Pb       7.51063      3.65334      8.24191         0.173541      0.338592     -0.425988
Pb       7.50518     15.00981      8.28107        -0.121661     -0.208751     -0.348232
Pb       7.44369      3.72683     12.26677         0.557649      0.065978      0.084534
Pb       7.58481     14.83998     12.41330        -0.184714      0.636869     -0.186630
Pb       7.27988      7.52294      4.00123         0.901024      0.002757      0.351210
Pb       7.46788      7.43961      0.04847         0.151609      0.497095     -0.353718
Pb       7.48666      7.48982      8.37530         0.186440      0.355506     -0.996264
Pb       7.57500      7.42873     12.49762        -0.097655      0.234119     -0.846641
Pb       7.47039     11.33908      4.08575         0.175465     -0.027548     -0.199959
Pb       7.53133     11.27095      0.08159        -0.257751     -0.316065     -0.290300
Pb       7.44123     11.20375      8.24271        -0.002210     -0.272737     -0.494590
Pb       7.54235     11.17037     12.34229         0.188044      0.034325     -0.153016
Pb      11.15941      3.75541      4.13764         0.015175     -0.213226     -0.313264
Pb      11.32706      3.82965     16.37931        -0.564881     -0.253611     -0.236899
Pb      11.43830     14.96400      4.23528        -0.946070      0.572997     -0.500881
Pb      11.07794     14.88869      0.10649         0.267912      0.679194     -0.674083
Pb      11.45396      3.75990      8.12140        -0.901389      0.052223      0.487725
Pb      11.33683     14.87272      8.24511        -0.324696      0.693066     -0.444636
Pb      11.34113      3.70641     12.19626        -0.238427      0.452183      0.069842
Pb      11.30849      0.13256     12.28828        -0.702197     -0.650087      0.103745
Pb      11.22336      7.45711      4.18670         0.080988      0.138624     -0.513490
Pb      11.11500      7.44498      0.12978         0.480996      0.396593     -0.891314
Pb      11.07671      7.43645      8.18683         0.658963      0.336315     -0.076642
Pb      11.29206      7.31679     12.29344         0.065650      0.857127     -0.195657
Pb      11.30767     11.27994      4.16118        -0.452652     -0.021647     -0.540463
Pb      11.20718     11.14403      0.05897         0.377613      0.116293     -0.480821
Pb      11.08163     11.19061      8.29606         0.133676     -0.076842     -0.153681
Pb      11.18691     11.31674     12.25228        -0.023744     -0.401780      0.252507
Ti       1.88801      1.88482      2.08458         0.556472      0.278024     -0.532438
Ti       1.89981      1.91305     14.45478        -0.101529     -0.721622     -0.733930
Ti       1.83564     13.18640      2.08219        -0.667403     -0.303482     -0.571355
Ti       1.79768     13.14796     14.37681         0.306134     -0.003009     -0.241963
Ti      13.07902      1.88192      2.04114        -0.119545     -0.499631     -0.109172
Ti      13.11496      1.82918     14.39803        -0.192476      0.743980     -0.144358
Ti      13.11776     13.14674      2.09077         0.187333      0.316508     -0.281375
Ti      13.07416     13.11936     14.29520        -0.619373     -0.258617      0.516338
Ti       1.81117      1.90490      6.21534         1.470074     -0.648545     -0.015613
Ti       1.90898     13.12781      6.19793        -0.150984      1.101516     -0.362541
Ti      13.16996      1.95388      6.19529        -0.957794     -1.389410     -0.044676
Ti      13.12288     13.06686      6.23026         0.150396      1.114960     -0.487527
Ti       1.87470      1.85473     10.25057        -0.960973      0.230896     -0.011764
Ti       1.80331     13.17287     10.25718         0.448405     -0.826768      0.412574
Ti      13.09638      1.81440     10.23484         1.236817      0.926008     -0.305803
Ti      13.07316     13.07079     10.26232        -0.075456      0.696713      0.411176
Ti       1.85216      5.60466      2.08963        -0.115086     -0.035885     -0.515917
Ti       1.93074      5.64633     14.43425        -0.766760      0.178186     -0.374381
Ti      13.13332      5.59582      2.11347         0.036291      1.215627     -0.476071
Ti      13.16962      5.65020     14.44043        -0.754973      0.710171     -0.439263
Ti       1.85568      5.58472      6.06875         0.189769      0.043735      0.560796
Ti      13.13509      5.65585      6.18923         0.076815      0.899596     -0.108944
Ti       1.92161      5.64300     10.26923        -0.604715     -0.513905     -0.014478
Ti      13.15592      5.61369     10.24101        -0.256645      0.442309     -0.238079
Ti       1.75236      9.40991      2.04732         0.318691     -0.755397     -0.961900
Ti       1.81509      9.39278     14.31665         0.090502     -0.741287     -0.217760
Ti      13.04220      9.38816      2.15239        -0.121962     -0.882417     -0.815302
Ti      13.14692      9.38188     14.34789        -0.549396     -0.336875     -0.166463
Ti       1.81077      9.38069      6.13254        -0.379283     -0.243862      0.530702
Ti      13.03054      9.38919      6.28635         0.694234     -1.002182     -0.944624
Ti       1.86641      9.37086     10.27063        -0.398755      0.424176      0.724750
Ti      13.14472      9.39384     10.27552        -0.793785     -1.212546      0.611757
Ti       5.67513      1.81654      2.04472        -1.049099      1.251680      0.353114
Ti       5.62483      1.95632     14.34222         0.698800     -0.211069     -0.355903
Ti       5.46738     13.12797      2.12583         1.044898      0.347828     -0.553214
Ti       5.56822     13.09533     14.38841        -0.081317      0.878364     -0.349855
Ti       5.65063      1.85133      6.23610        -0.544314     -0.865443     -0.296620
Ti       5.61457     13.11073      6.18115        -0.577965     -0.051756     -0.004594
Ti       5.58979      1.82834     10.31138         0.734801     -1.165117      0.171326
Ti       5.57738     13.07591     10.31870        -0.337878      0.704431     -0.024234
Ti       5.62349      5.61729      2.09894        -0.184130     -0.484393     -0.492454
Ti       5.58910      5.69178     14.36927         0.716633      0.272726      0.074704
Ti       5.59629      5.61097      6.18765         0.432286      0.644978     -0.106688
Ti       5.61739      5.60724     10.20445         0.235332      1.671993      0.151251
Ti       5.52846      9.44095      2.16042         0.443920     -0.145818     -1.381376
Ti       5.63156      9.43410     14.33933         0.334531     -1.431096      0.773841
Ti       5.63841      9.36006      6.15759         0.921246      0.739750     -0.084652
Ti       5.60475      9.34043     10.31226         0.725318     -0.472590     -0.256164
Ti       9.35334      1.87861      2.12830         0.412847     -0.059278     -0.843419
Ti       9.39440      1.94513     14.35344        -0.525666     -1.082051      0.228991
Ti       9.38857     13.22818      2.13039        -1.128831     -0.568977     -0.230947
Ti       9.34718     13.16621     14.47394         0.236012      0.593386     -0.778114
Ti       9.37534      1.88384      6.22287         0.668493     -0.177543     -0.672463
Ti       9.39302     13.19899      6.21633        -0.292704     -0.853450     -0.756042
Ti       9.33120      1.86377     10.24134         0.442096      0.164700     -0.218104
Ti       9.28143     13.14706     10.23425         0.694481     -0.411299      0.353527
Ti       9.37788      5.65786      2.16501        -0.391616     -0.348302     -0.634176
Ti       9.38424      5.62482     14.34007         0.057787      0.296088     -0.118924
Ti       9.29957      5.62679      6.18779         0.040625      1.086959     -0.463454
Ti       9.34501      5.58576     10.19306         0.828975      0.610276      1.119867
Ti       9.30859      9.43911      2.18685         0.121245     -0.188747     -0.599439
Ti       9.42322      9.42227     14.42702        -0.392772     -0.648412     -0.627531
Ti       9.36576      9.44104      6.12633        -1.321628     -1.255224     -0.113354
Ti       9.37686      9.35656     10.35569         0.253015     -0.535172      0.085267
O       1.99379      1.92493      0.21321        -0.505923     -0.607057      0.805101
O       1.83140      1.88404     12.55436         0.094892      0.136409      0.693507
O       1.68604     13.15120      0.20992         0.170866      0.131833      0.751319
O       1.87786     13.10155     12.47489        -0.282502      0.205653      0.998758
O      13.08419      1.90347      0.18249         0.122500     -0.217073      0.967871
O      13.09852      1.93218     12.46818         0.085703     -0.408643      1.352874
O      13.14564     13.24691      0.23997         0.366802     -0.272760      0.736157
O      12.97560     13.18615     12.46215         0.286558     -0.177557      0.724975
O       1.85410      1.89459      4.36220        -0.561739      0.107085      0.391778
O       1.85987     13.15811      4.33305         0.088423     -0.471776      0.888528
O      13.20550      1.86079      4.31863         0.035360      0.472836      1.031906
O      13.06193     13.16899      4.33760         0.040637     -0.360589      0.786811
O       1.82654      1.86540      8.41305         0.520359      0.329109      0.572936
O       1.81149     13.18207      8.43480        -0.101658     -0.164728      0.018698
O      13.11503      1.92377      8.37814        -0.190641     -0.215380      0.375595
O      13.10765     13.21861      8.40169         0.047345     -0.481425      0.346534
O       1.78300      5.75520      0.17292         0.049045     -0.171426      1.152249
O       1.86364      5.57638     12.56930         0.093311     -0.097289      0.481872
O      13.11632      5.69904      0.24437        -0.095392     -0.403677      1.051613
O      13.10745      5.73165     12.55419        -0.006967     -0.787976      0.457337
O       1.95387      5.58295      4.25764        -0.023283      0.019155      0.606853
O      13.08333      5.68317      4.35507         0.105643     -0.342171      0.365493
O       1.85246      5.66909      8.44153         0.290604     -0.005273      0.229650
O      13.14464      5.70056      8.36443         0.028138     -0.611690      0.841329
O       1.82707      9.29586      0.17883         0.279904      0.429745      0.982417
O       1.85350      9.46639     12.43153        -0.218254     -0.081206      0.901413
O      13.00250      9.37318      0.31985         0.023872      0.218882      0.461052
O      13.11418      9.42024     12.51217         0.398406     -0.055671      0.679759
O       1.76909      9.39737      4.29507         0.102209      0.359920      0.489678
O      13.15204      9.40162      4.37848        -0.110246      0.238040      0.923663
O       1.82856      9.30213      8.38010         0.577804      0.218475      0.488480
O      13.07927      9.39737      8.40842         0.006334      0.136460      0.728741
O       5.60259      1.86822      0.20857        -0.249786     -0.135976     -0.141916
O       5.60823      1.93862     12.44858        -0.108839      0.312022      0.903917
O       5.55082     13.18591      0.25244         0.171618     -0.079774      0.637724
O       5.56989     13.08381     12.51451        -0.016522     -0.161743      0.842441
O       5.64923      1.90270      4.33497         0.328587      0.024577      0.888542
O       5.45176     13.16191      4.35071         0.514397     -0.161570      0.158276
O       5.59438      1.72058      8.38800        -0.011467      0.776987      0.892540
O       5.62108     13.16017      8.45855         0.226955      0.087347      0.283290
O       5.65093      5.66775      0.18301         0.089954      0.217766      1.051100
O       5.66294      5.72267     12.51734        -0.066024     -0.702462      0.572785
O       5.49942      5.51457      4.23990         0.620263      0.572408      1.183429
O       5.65498      5.64771      8.35311        -0.565661      0.035892      0.696800
O       5.54736      9.44267      0.23962        -0.145205     -0.019746      1.111159
O       5.63007      9.41784     12.51082        -0.057585      0.179925      0.150936
O       5.63789      9.45445      4.28716        -0.196031     -0.056683      0.898987
O       5.59683      9.34761      8.43167        -0.193329     -0.101291      0.149314
O       9.33102      1.87186      0.26922         0.384459      0.119463      0.601578
O       9.39346      1.84657     12.51152        -0.060458      0.370526      0.018035
O       9.15514     13.21865      0.21784         0.881530     -0.060093      1.119674
O       9.45252     13.18097     12.59388        -0.584640     -0.047767      0.223147
O       9.23874      1.91087      4.36512         0.142505      0.035465      0.498007
O       9.46427     13.15663      4.33642        -0.163087      0.117693      1.110882
O       9.35964      1.88710      8.35876        -0.068228      0.096568      1.509121
O       9.22480     13.11423      8.38310         0.409012      0.102760      0.578791
O       9.31781      5.60008      0.25942         0.347342      0.035590      0.922848
O       9.31038      5.60893     12.47872         0.116564     -0.047356      0.890453
O       9.28943      5.70578      4.31221         0.141728     -0.250538      0.805711
O       9.42000      5.62562      8.38599        -0.493812     -0.234034     -0.073241
O       9.35066      9.44569      0.25865         0.272280      0.244438      0.640518
O       9.36368      9.45026     12.54162        -0.261668     -0.060314      0.757629
O       9.25117      9.38041      4.28304         0.067492      0.095841      0.854468
O       9.37485      9.37758      8.47092         0.093508      0.222556      1.052170
O       3.71791      1.99033      2.44976         0.831321     -0.176239     -0.275812
O       3.78660      1.80868     14.60060        -0.674060     -0.086356     -0.109880
O       3.65371     13.01910      2.35585         0.499346     -0.353304     -0.085602
O       3.68658     13.24711     14.64442         0.362446     -0.132481     -0.114415
O       0.01054      1.84303      2.33866        -0.454734      0.008151     -0.102769
O      14.99960      1.97282     14.66819        -0.159012      0.009363     -0.077992
O      14.96569     13.27624      2.44112         0.042284     -0.071439     -0.196255
O      14.93937     12.96610     14.53242        -0.321336      0.641264      0.015846
O       3.73682      2.07406      6.39526         0.113401      0.001939      0.132159
O       3.72952     12.97771      6.50723         0.024341     -0.234763      0.035202
O      15.00900      1.73873      6.53393        -0.844512      0.062099     -0.491595
O      14.96381     13.27160      6.42931         0.406283     -0.211404     -0.111582
O       3.72348      1.85013     10.53468         0.195362      0.646899     -0.125433
O       3.71260     13.10535     10.54479        -0.128976     -0.100964     -0.246663
O      14.98478      1.86327     10.47484        -0.086224     -0.335947      0.305097
O      14.92552     13.19801     10.58667         0.240877      0.236284     -0.093648
O       3.72923      5.62503      2.09083         0.191754      0.321752      0.348431
O       3.76883      5.79115     14.70968        -0.141139     -0.109129     -0.149965
O      14.98237      5.72830      2.46983        -0.381802     -0.456131     -0.401611
O      14.97993      5.67037     14.58882         0.964511     -0.703382      0.158662
O       3.73978      5.38494      6.39919        -0.088554      0.467616      0.296367
O       0.00326      5.82982      6.36537         0.071245     -0.008339     -0.067889
O       3.75502      5.54606     10.61500         0.229900     -0.020350     -0.419799
O       0.00085      5.63218     10.53964         0.019469      0.151631      0.011020
O       3.65104      9.39334      2.38294         0.066667      0.642582      0.004221
O       3.74571      9.35810     14.55028        -0.311910      0.032814      0.092604
O      14.92670      9.22219      2.31914         0.250460      0.464756      0.188546
O      14.99368      9.41815     14.70383         0.059346      0.433973     -0.201066
O       3.71975      9.58234      6.38785         0.246165     -0.395361     -0.085852
O      14.98739      9.22294      6.54403        -0.075770      0.610163     -0.568093
O       3.73999      9.43764     10.53079        -0.405138     -0.037640     -0.105296
O      14.98587      9.26386     10.44954         0.180449      0.139417     -0.052647
O       7.48163      1.74141      2.28884         0.088039      0.049627      0.352036
O       7.46915      2.05702     14.55482         0.547431      0.064553      0.092080
O       7.51608     13.23409      2.49030        -1.320140      0.056404     -0.235323
O       7.43669     13.13368     14.65268        -0.143419     -0.469527     -0.297516
O       7.53167      1.68240      6.51743        -1.361347      0.108572     -0.114101
O       7.49211     13.35302      6.35372        -0.064341     -0.095648     -0.082329
O       7.46566      1.76888     10.52058         0.356933      0.402567     -0.298304
O       7.46727     13.18371     10.62639        -0.169496     -0.203072     -0.118698
O       7.48531      5.79073      2.36259        -0.239004     -0.374808     -0.130237
O       7.51175      5.58248     14.69565        -0.036147     -0.252524     -0.463460
O       7.45661      5.79701      6.48528        -0.511606     -0.320746     -0.290650
O       7.49429      5.75896     10.45779        -0.594978     -0.349377     -0.081822
O       7.42361      9.37030      2.26102         0.235018      0.049288      0.376645
O       7.49546      9.52276     14.65161         0.159630      0.400655     -0.150618
O       7.52751      9.28133      6.55676        -1.419508      0.152495     -0.402839
O       7.47491      9.20329     10.58974         0.388300      0.756321     -0.233147
O      11.25767      1.94423      2.50737        -0.221962      0.268460     -0.437770
O      11.27194      1.79453     14.65100        -0.297992      0.030276     -0.194004
O      11.24874     13.10782      2.25306         0.234008     -0.154973      0.107986
O      11.21618     13.18118     14.74355         0.360034      0.574686      0.131049
O      11.23851      2.08059      6.38911         0.637145      0.179942     -0.182085
O      11.24735     12.97312      6.48368        -0.125016      0.213147      0.202888
O      11.24066      1.99206     10.47680        -0.899168     -0.212375      0.064661
O      11.17134     12.97152     10.45177         0.642999      0.644919     -0.384857
O      11.23910      5.61413      2.48465         0.055846     -0.225789     -0.449077
O      11.21039      5.75354     14.69597         0.528592     -0.093630     -0.013498
O      11.21790      5.55252      6.41595         0.064667     -0.179692     -0.129697
O      11.25924      5.55801     10.49012        -0.387256     -0.372986      0.082734
O      11.19748      9.47143      2.50315        -0.210046      0.029316     -0.222223
O      11.25704      9.29922     14.66024        -0.403983      0.305518      0.211079
O      11.20451      9.46070      6.47278        -0.165857      0.373363     -0.195457
O      11.24879      9.48382     10.64082         0.173604     -0.172560     -0.725962
O       1.90648      3.78358      2.22707        -0.940149     -0.350349      0.170471
O       1.97393      3.72845     14.79204        -0.218867      1.108730     -0.523693
O       1.99674     14.99900      2.39032        -0.327892      0.670198     -0.287139
O       1.77810      0.00037     14.62026        -0.328540      0.358252      0.063048
O      13.14734      3.73483      2.31140         0.174512      0.605185      0.268728
O      13.05265      3.80486     14.71228        -0.019698     -1.032393     -0.307473
O      13.02865      0.05143      2.41326         0.230299     -0.626289     -0.304205
O      13.18680     15.00182     14.65658         0.288003      0.010574     -0.429541
O       1.66388      3.77383      6.50548        -0.078626     -0.063935     -0.267035
O       1.97895      0.00804      6.47639         0.044227     -0.095194     -0.287508
O      13.27618      3.78085      6.42742         0.161455      0.328854      0.040436
O      12.95228      0.04861      6.42025        -0.026215     -0.488414     -0.013699
O       1.78645      3.74099     10.55849         0.384728     -0.081770     -0.254635
O       1.82237     15.00906     10.58447         0.172950      0.296430      0.017975
O      13.17948      3.71635     10.54423        -0.125364      0.697618     -0.153855
O      12.98671      0.00281     10.54172         0.002021     -0.492293     -0.277012
O       1.84716      7.51222      2.42112         0.355930      0.048178     -0.143437
O       1.81307      7.52042     14.51945        -0.084846      0.166285     -0.131225
O      13.01126      7.51199      2.40011        -0.151949     -0.515626      0.099184
O      13.18495      7.54106     14.71649        -0.138600     -0.142151     -0.208799
O       2.02833      7.53082      6.33945         0.285437     -0.658169     -0.121261
O      12.97429      7.54760      6.47537        -0.010537     -0.726102     -0.217212
O       1.89878      7.48755     10.60291         0.306655      0.279605     -0.193889
O      13.02698      7.45438     10.59090         0.180004      0.971421     -0.447554
O       1.63986     11.24970      2.26375         0.167001      0.174402      0.414291
O       1.86617     11.30174     14.54289         0.458169     -1.187073      0.392198
O      13.16074     11.27507      2.34991         0.315442      0.309393      0.211604
O      13.04047     11.26179     14.73747        -0.187638      0.246304     -0.255524
O       1.75481     11.26067      6.46419        -0.457833     -0.388659     -0.181003
O      13.18054     11.25467      6.48454         0.420697     -0.041490     -0.108722
O       1.76501     11.25637     10.44055        -0.101260     -0.206198     -0.119084
O      13.21929     11.27397     10.54569        -0.070505     -0.677681     -0.284044
O       5.70018      3.75944      2.15326         0.091654     -0.153879      0.555346
O       5.54219      3.83038     14.66149        -0.215742     -0.541315     -0.333600
O       5.42766      0.03108      2.32167         0.088491     -1.202439      0.167880
O       5.67489      0.02919     14.53454        -0.065278      0.024496      0.180793
O       5.70430      3.72593      6.46586         0.701159      0.087966     -0.063159
O       5.38883     14.97412      6.41862         0.261307      0.829215     -0.029248
O       5.65238      3.76939     10.44923         0.084561     -0.780912      0.046582
O       5.52035      0.01027     10.67297         0.170775     -0.485049     -0.613446
O       5.50025      7.54529      2.32041         0.085615     -0.224092      0.233988
O       5.82153      7.55211     14.67101        -0.480989      0.182972     -0.360478
O       5.47978      7.52008      6.31817        -0.468687     -0.468327      0.083679
O       5.51660      7.48691     10.62693        -0.191831     -0.155771     -0.688838
O       5.66082     11.30880      2.36792        -0.057442     -0.264291      0.042568
O       5.51040     11.27174     14.69951         0.043221      0.244142     -0.220164
O       5.75406     11.25518      6.44942         0.129417     -0.030870      0.083324
O       5.63966     11.22118     10.47336         0.297554      0.309969      0.179586
O       9.29448      3.76075      2.37324        -0.186913      0.102046      0.333642
O       9.51596      3.77288     14.56258        -0.112278      0.080165      0.456815
O       9.49018      0.02165      2.42419         0.024525      0.169913     -0.083368
O       9.20988      0.06953     14.64646         0.249901     -0.254158      0.088094
O       9.15498      3.78687      6.36351        -0.152446     -0.476932      0.198273
O       9.56443      0.01479      6.48238         0.059428     -0.223915     -0.110889
O       9.22410      3.75939     10.49788        -0.036579     -0.897187     -0.020355
O       9.36480     14.97932     10.57247         0.504385      0.780575     -0.444318
O       9.38120      7.53469      2.29501         0.335033      0.230987      0.090307
O       9.29206      7.51198     14.68037        -0.314441      0.386750     -0.195926
O       9.37123      7.54835      6.54131         0.635945     -0.522996     -0.451518
O       9.41863      7.46028     10.61059         0.347141      0.515502     -0.555769
O       9.33005     11.32665      2.42936        -0.211277     -0.343177     -0.317094
O       9.45251     11.32871     14.62578        -0.241849     -1.031283      0.340001
O       9.23982     11.25105      6.48557        -0.042754      0.818730     -0.107937
O       9.36319     11.26874     10.55426        -0.997508     -0.313440     -0.093898
