  # total energy = -7879.90562318 
CRSYTAL
PRIMVEC
    15.6000000000000000    0.0000000000000000    0.0000000000000000
     0.0000000000000000   15.6000000000000000    0.0000000000000000
     0.0000000000000000    0.0000000000000000    17.640000000000000
PRESSURE
-3.43535 -3.32274 -3.97059 0.006121 -0.373899 -0.018425
PRIMCOORD
320 1
Pb       3.89885      3.92003      4.26923        -0.257869     -0.015008      0.155810
Pb       3.77380      3.72872     17.54644         0.623045      0.020607      0.718874
Pb       4.08275      0.09696      4.36829        -0.609441     -0.122857      0.328171
Pb       3.99098     15.50142     17.48214        -0.104115      0.315034     -0.110845
Pb       0.01205      3.89083      4.29869        -0.247098     -0.442521      0.408079
Pb      15.50253      3.80637     17.58697         0.018184      0.058297     -0.089733
Pb      15.59014     15.56898      4.30575         0.252072      0.434161      0.765500
Pb       0.20100     15.50119     17.54265        -0.180173      0.254147      0.420758
Pb       3.94321      3.80835      8.70538        -0.265887      0.139906      0.554138
Pb       3.86170     15.57212      8.74242         0.087949     -0.239400      0.332432
Pb       0.03021      3.78452      8.64692        -0.296844      0.400580      0.785012
Pb       0.05645     15.53532      8.96112         0.245059      0.158894     -0.393474
Pb       3.70330      4.10477     13.06361         0.845897     -0.299276      1.013332
Pb       3.83140      0.02829     13.18392         0.468869     -0.768554      0.070814
Pb      15.49656      3.82449     13.20975         0.094516      0.043830      0.080397
Pb       0.02116      0.00764     13.11497        -0.253495     -0.411102      0.515109
Pb       3.81604      7.78660      4.16454         0.190465     -0.284128      1.133563
Pb       3.72012      7.79751     17.55283         0.547646     -0.121280      0.313570
Pb      15.48381      7.72628      4.42919        -0.291455      0.114218      0.260069
Pb      15.43636      7.76574      0.02774         0.573117      0.076937     -0.201497
Pb       3.84689      7.76373      8.73785         0.095550      0.126062     -0.017196
Pb       0.07646      7.75568      8.65486        -0.416385      0.012416      0.307366
Pb       3.86830      7.86478     13.16847         0.193694     -0.054567      0.212476
Pb      15.35488      7.83457     13.17813         0.694737     -0.076215      0.398883
Pb       3.88759     11.65676      4.28542         0.433994      0.015238      0.175103
Pb       3.93234     11.63265     17.54996        -0.398975      0.385402      0.520565
Pb      15.56430     11.59400      4.39165         0.479187      0.355585      0.903584
Pb      15.57919     11.56506      0.12848         0.410206      0.243805     -0.016873
Pb       3.90237     11.70138      8.62026         0.173750     -0.251846      1.018346
Pb       0.03328     11.58098      8.78288        -0.538062      0.232365      0.570833
Pb       3.91429     11.61501     13.23278         0.308594      0.097875     -0.259600
Pb       0.12372     11.59650     13.22138        -0.161037      0.391516     -0.029893
Pb       7.83210      4.07504      4.28238        -0.395131     -0.685224      0.528841
Pb       7.81695      3.79778     17.46416         0.279768     -0.050541      0.862422
Pb       7.99890     15.59700      4.31490        -0.636233      0.800948      0.335674
Pb       7.90147     15.40087     17.61841        -0.368666      0.872083     -0.316625
Pb       8.02562      3.89968      8.65641        -0.931037     -0.249988      1.129768
Pb       7.75907     15.50364      8.64095        -0.714412      0.421824      0.975848
Pb       7.63666      3.84634     12.99917        -0.284004      0.263980      1.136316
Pb       7.69143     15.44762     13.19353         0.045908      0.264688      0.091404
Pb       7.66107      7.86893      4.30184         0.195216     -0.205791      0.712428
Pb       7.82672      7.79689     17.50499        -0.446697     -0.216078      0.476036
Pb       7.87277      7.78735      8.74987        -0.149089      0.362999      0.423490
Pb       7.82942      7.67705     13.12512        -0.772528      0.105789      0.358878
Pb       7.75314     11.74552      4.32769        -1.134911     -0.232602      0.426734
Pb       7.75861     11.75943      0.01775        -0.311255     -0.610100     -0.464868
Pb       7.72884     11.65008      8.84308        -0.078626     -0.342053      0.167386
Pb       7.80492     11.51570     13.21056        -0.094155      0.259402      0.033256
Pb      11.54989      3.98923      4.33532         0.557300     -0.386440      0.246874
Pb      11.69399      4.00135     17.47838        -0.415368     -0.717840      0.198477
Pb      11.78547      0.03934      4.35229        -0.343516      0.278079      0.630653
Pb      11.76021      0.01753     17.51120        -0.045002      0.389542      0.344731
Pb      11.71742      3.91517      8.75842         0.120714     -0.641912      0.355361
Pb      11.61074     15.51428      8.80883        -0.377198      0.651037      0.457824
Pb      11.56623      3.91326     13.17608         0.051673     -0.478016      1.054111
Pb      11.74459     15.57206     13.19859        -0.335449      0.098760      0.096249
Pb      11.64397      7.84025      4.32881         0.161763     -0.263082      0.494280
Pb      11.77072      7.89274     17.59004        -0.505756     -0.113063      0.382396
Pb      11.80425      7.74420      8.76575        -0.139282      0.197514      0.459159
Pb      11.67533      7.86009     13.18637        -0.154170     -0.354277      0.699338
Pb      11.75730     11.87106      4.50127        -0.142832     -0.158842      0.519301
Pb      11.62522     11.82206      0.04711         0.481783     -0.544456      0.320071
Pb      11.60740     11.73906      8.70828        -0.037134     -0.403786      1.297065
Pb      11.83181     11.71023     13.16155        -0.611659     -0.207222      0.677157
Ti       1.94412      1.88593      2.35340         0.204867      0.174001     -0.652692
Ti       1.96248      1.92351     15.50117        -0.120979     -0.628963      2.393836
Ti       1.93412     13.60462      2.52994         0.365891      0.400946     -1.251782
Ti       1.92751     13.59459     15.62307         0.724335     -0.418043     -2.121831
Ti      13.57404      1.99623      2.34441         0.362905      0.158254      0.275907
Ti      13.68937      1.86694     15.63167        -0.554575      0.691093      0.344640
Ti      13.66595     13.67267      2.47177        -0.180544      0.039094     -1.599423
Ti      13.69913     13.56146     15.73900         0.477709      0.939785     -1.322924
Ti       1.90431      1.94443      6.75425        -0.284570     -0.186822     -0.954454
Ti       1.79080     13.57541      6.93029         0.378888      1.358732     -2.206614
Ti      13.61032      1.83756      6.81434        -0.544711      1.277148     -0.501492
Ti      13.53964     13.67591      7.00225         0.528107     -0.075071     -1.196276
Ti       1.97622      1.91691     11.30331        -0.426947      0.134441     -2.056280
Ti       1.92328     13.56118     11.26057         0.711722     -0.018407     -0.576357
Ti      13.57028      1.96705     11.27901         0.245563     -0.171825     -1.759744
Ti      13.67272     13.64712     11.23813        -0.110066     -0.560143     -0.138789
Ti       1.76291      5.87739      2.39797         1.204349     -1.586994     -0.407746
Ti       1.87741      5.72997     15.71391         0.022783      1.690176     -0.623320
Ti      13.57891      5.83135      2.41298        -0.283760      0.291754      0.187400
Ti      13.56398      5.89241     15.61135         0.601486     -0.682076     -1.077570
Ti       1.99743      5.82015      6.84431        -0.529581     -0.222997     -0.823127
Ti      13.61671      5.83855      6.89210         1.001094     -0.700490     -2.448594
Ti       1.82222      5.90061     11.17406         0.702199      0.377691     -0.442536
Ti      13.63048      5.77894     11.32781        -0.751718      0.589461     -1.418243
Ti       1.82855      9.69035      2.46575        -0.044809      0.900895     -1.100583
Ti       1.85848      9.69934     15.63074         0.110511      0.460931      0.397918
Ti      13.48468      9.82295      2.58089         0.980179     -0.773784     -0.013694
Ti      13.63141      9.80869     15.65232        -0.181180     -0.166042     -0.930140
Ti       1.89641      9.74899      6.80476         0.784293     -0.697264     -1.370359
Ti      13.52877      9.82711      6.78479         0.992306     -0.879924      0.357488
Ti       1.82673      9.73407     11.13883         1.613172     -0.471081      0.204760
Ti      13.58295      9.75711     11.16847         0.127482     -0.070967     -1.065622
Ti       5.90053      1.94107      2.35899        -0.222095      0.231061     -0.881759
Ti       5.87026      1.94748     15.49016         0.206506     -0.738907     -0.067020
Ti       5.80461     13.71269      2.37407        -0.630473     -0.945660      0.751047
Ti       5.83656     13.59318     15.55997        -0.078087      0.110316     -1.353912
Ti       5.75948      1.93759      6.80152         1.324263     -0.963609     -1.449094
Ti       5.74803     13.58298      6.74832         0.007995      0.314614      0.022482
Ti       5.76192      1.91091     11.19574         0.690092     -0.346043     -1.327985
Ti       5.85463     13.59840     11.26256        -0.509635     -0.405103     -1.381395
Ti       5.77890      5.83031      2.32126         0.079439     -0.194494     -1.150527
Ti       5.76563      5.72604     15.77018         0.042127      1.385635     -1.995629
Ti       5.83411      5.73184      6.81767        -0.492517      1.035072     -0.785922
Ti       5.76729      5.78894     11.11030         0.626486      0.123190      0.345335
Ti       5.82784      9.68859      2.33945        -1.089568      1.370342     -0.963972
Ti       5.81091      9.69112     15.72987         0.167476     -0.573383     -0.939988
Ti       5.82973      9.62058      6.81364        -0.022534      0.783522     -1.443097
Ti       5.85807      9.65991     11.26867        -0.709585      0.737875     -1.204289
Ti       9.76028      2.03935      2.35826         0.281803     -0.181633     -1.557272
Ti       9.69965      1.85369     15.62527         0.310006      0.794238     -0.999235
Ti       9.72482     13.64350      2.48744         0.725593      1.075851     -1.797913
Ti       9.77107     13.53246     15.73438        -0.187630      0.721337     -1.654148
Ti       9.70459      1.95294      6.78959        -0.065377     -0.131246     -1.607278
Ti       9.60426     13.60173      6.83343         0.416064     -0.309823     -0.003732
Ti       9.64633      1.93962     11.33262        -0.065382     -0.702065     -1.736342
Ti       9.78360     13.61110     11.36294        -1.097983     -0.500266     -2.137536
Ti       9.72323      5.99132      2.42073        -0.413105     -0.772515     -2.044827
Ti       9.68027      5.86679     15.64860         0.223614     -0.834738      0.470172
Ti       9.77377      5.92415      6.78322        -0.433282     -0.561643     -1.206689
Ti       9.75868      5.78358     11.34182        -0.390191      1.036504     -1.782750
Ti       9.62224      9.87718      2.50552         0.430789     -1.384723     -1.195768
Ti       9.76965      9.75511     15.71661        -0.223007      0.016039     -0.831620
Ti       9.76887      9.74060      6.75236        -1.205022      0.007179      0.005718
Ti       9.78331      9.67688     11.22705        -1.937252      0.652583     -1.903575
O       2.01680      1.74804      0.54675        -0.074090      0.314786      1.135430
O       1.98912      1.94616     13.80849        -0.328195      0.197365     -2.105963
O       1.81413     13.61251      0.73437         0.215495      0.151290      0.678822
O       1.90731     13.58723     13.80721        -0.180968     -0.125142      0.418395
O      13.61878      1.98167      0.61280        -0.044168     -0.126686     -0.831646
O      13.73426      1.97883     13.89688        -0.133322     -0.438103     -0.715920
O      13.67526     13.64071      0.65901         0.069473     -0.023850      1.451885
O      13.67334     13.54811     13.92668        -0.147493     -0.042984      1.120463
O       1.82070      2.09710      4.97950         0.364478     -0.613040      0.890780
O       1.77956     13.66615      5.12258         0.162301     -0.492883      1.504900
O      13.48178      1.88032      5.03869         0.398911      0.099748      1.196250
O      13.44192     13.75712      5.24863         0.208291     -0.281164     -0.092655
O       1.97312      1.79285      9.50974        -0.166034      0.240826      0.904800
O       1.77968     13.60770      9.47036         0.342992      0.307645      0.513630
O      13.56235      2.06688      9.50638         0.088585     -0.477951      0.764223
O      13.55833     13.59290      9.50254         0.051932      0.270907     -0.666268
O       1.70259      5.83921      0.68092         0.152064      0.313385     -0.742613
O       1.94778      5.90380     13.98157        -0.186847     -0.592644     -0.447360
O      13.49481      6.10220      0.68492         0.352875     -0.533952     -0.751487
O      13.59403      5.90374     13.83517         0.166562     -0.037259      0.454910
O       1.94826      5.74044      5.10507        -0.277322      0.182096     -1.031427
O      13.65258      5.74569      5.07036        -0.118371      0.245794      0.974725
O       1.98872      5.89707      9.42556        -0.321409     -0.111387      0.189454
O      13.56132      5.87396      9.52891        -0.056575     -0.163960      0.933731
O       1.77392      9.82551      0.68511         0.127726     -0.310259      1.226326
O       1.79224      9.71157     13.85671         0.070022      0.041793      0.298161
O      13.56790      9.78765      0.84068        -0.063024      0.148457     -0.339731
O      13.53882      9.69836     13.84510         0.588819      0.532107      0.934179
O       1.90230      9.67311      5.02097        -0.197430      0.205255      0.143913
O      13.61430      9.77087      5.03718        -0.188851     -0.305562     -0.255795
O       1.99297      9.65901      9.39614        -0.347428      0.330721     -0.230097
O      13.51075      9.75683      9.37680         0.243053     -0.219174      1.275012
O       5.89219      1.93626      0.59097        -0.466975     -0.252795      0.702675
O       5.92941      1.96762     13.72531        -0.235050     -0.078967      0.736242
O       5.78997     13.81230      0.64687         0.322334     -0.052195     -1.340669
O       5.83464     13.53715     13.76625         0.242194      0.167683      0.793391
O       5.77078      1.79124      5.00124         0.098945      0.632568      0.965465
O       5.75930     13.60067      4.99127         0.099725     -0.128137      0.060555
O       5.79526      1.90742      9.41209        -0.348293     -0.156641      0.078297
O       5.80004     13.65022      9.43465         0.078670     -0.314183      1.240128
O       5.83534      5.89385      0.54334        -0.153367     -0.337032      0.926320
O       5.76430      5.84093     13.97650         0.150365     -0.318206      0.673708
O       5.74553      5.79830      5.05741         0.451332     -0.183735      0.141653
O       5.77962      5.65384      9.37920        -0.464656      0.682623     -0.055578
O       5.72033      9.73843      0.57790         0.598097     -0.092901      0.019789
O       5.69026      9.64472     13.95569         0.041204      0.174655      0.574571
O       5.98845      9.86068      5.01929        -0.342378     -0.716290      1.116037
O       5.86542      9.67620      9.45592        -0.010861     -0.081936      0.356395
O       9.77890      2.05878      0.54529         0.177243     -0.488333      1.226107
O       9.60278      1.92872     13.85368         0.115445     -0.107480     -0.104356
O       9.80207     13.70903      0.65003        -0.327048     -0.408211      1.114068
O       9.74059     13.47930     13.97879         0.294261      0.126947     -0.157221
O       9.64403      1.90133      4.97851         0.308028      0.223101      0.957865
O       9.75415     13.44447      5.08805        -0.410051      0.763136     -0.057860
O       9.70182      2.00919      9.52887        -0.168546     -0.290743      1.144605
O       9.76533     13.61048      9.54485         0.126880      0.136065      1.009937
O       9.77729      5.89587      0.63188        -0.042283      0.192719      1.085524
O       9.67004      5.79857     13.93876        -0.103882      0.116773     -1.420752
O       9.71845      5.83310      4.98952         0.015075      0.199523      0.582358
O       9.82065      5.88688      9.57655         0.157548     -0.208670     -0.147695
O       9.70335      9.72356      0.73715         0.034827      0.732214      0.492394
O       9.79555      9.87153     13.98720        -0.050785     -0.467158      0.047436
O       9.57635      9.60550      4.98169         0.456354      0.687316      0.526975
O       9.57179      9.71974      9.39601         0.713584     -0.309562      1.519002
O       3.89392      1.98775      2.80591        -0.101355     -0.719943     -0.203427
O       3.87468      1.98635     15.88872         0.631595     -0.269256      0.183036
O       3.90602     13.51959      2.75504        -0.807726      0.617547      0.330454
O       3.93029     13.60377     15.93098         0.059355      0.327710      0.536388
O      15.47856      1.91380      2.76408         0.935626     -0.103364     -0.047851
O       0.04777      2.00724     15.95635         0.070056     -0.101537      0.204645
O      15.57051     13.61226      3.01721        -0.703536      0.142319     -0.771509
O       0.11250     13.63672     16.02320        -1.343490     -0.163172      0.366066
O       3.85164      1.78027      7.16990         0.040951      0.423292     -0.062855
O       3.78894     13.66021      7.22522         0.060584     -0.089357     -0.110243
O       0.01805      1.98432      7.19940        -1.029697     -0.369021     -0.103089
O      15.47103     13.57165      7.39447        -0.077019      0.185976     -0.065951
O       3.90384      1.89841     11.57289        -1.214995      0.053762      0.478463
O       3.88122     13.55216     11.61901        -0.632933      0.209131      0.065551
O      15.53775      1.96349     11.60708         0.449484     -0.149887      0.402353
O      15.56524     13.60841     11.57606         0.353072     -0.008272      0.455120
O       3.80800      5.86816      2.70483         0.244521      0.115726      0.170204
O       3.83845      5.82737     15.96462        -0.211075     -0.031047      1.046534
O      15.48277      5.76639      2.80717         0.614598      0.464670      0.211686
O      15.56241      5.87933     15.97782        -0.863316     -0.028353      0.578528
O       3.85253      5.79951      7.12182         0.623384     -0.035639      0.920433
O       0.00325      5.81650      7.20841        -0.225246      0.078821      0.372611
O       3.82222      5.92394     11.69097        -0.267017     -0.055258     -0.784082
O      15.51738      5.80926     11.74604         0.132182      0.250012     -0.457189
O       3.87239      9.67610      2.69447        -0.757748      0.054454      0.462558
O       3.81066      9.74942     16.25696         0.021511     -0.441916     -1.106357
O      15.51449      9.75686      2.89546         0.407568     -0.160296     -0.058264
O      15.56642      9.67945     16.18186        -0.643423      1.154207     -0.459204
O       3.86864      9.82364      6.99741         0.309639     -0.404609      0.819976
O       0.03842      9.76027      7.24482        -1.324070     -0.309788     -0.163302
O       3.91180      9.85396     11.66522        -0.846888     -1.259026     -0.103371
O      15.54406      9.70866     11.61777        -0.650155      0.288129     -0.328658
O       7.86054      1.83192      2.59732        -0.533263      0.206601      0.808374
O       7.77464      1.90429     16.07007        -0.126160     -0.072976     -0.386809
O       7.69592     13.72857      2.73304         2.148792     -0.264358      0.246754
O       7.84605     13.53785     16.04427        -0.401848      0.255001      0.562834
O       7.77504      2.05501      7.19377        -0.208902     -0.376546      0.006557
O       7.72337     13.51089      7.23740         0.559372      0.194141     -0.385254
O       7.64583      1.97192     11.59506         1.199131     -0.502965      0.099099
O       7.80474     13.54645     11.53555        -0.104444      0.283416      0.758189
O       7.67870      5.75150      2.78080         0.832622      0.884046     -0.140388
O       7.80538      5.77865     16.08508         0.062290      0.331327     -0.069042
O       7.76102      5.89469      7.25004         0.792001     -0.376505     -0.483243
O       7.75488      5.88902     11.44260        -0.513097     -0.160874      0.733774
O       7.66631      9.80064      2.77892         1.558648      0.195187      0.172055
O       7.73196      9.76724     15.95884         0.828325     -0.019255      0.695683
O       7.81937      9.75845      7.22360        -0.538523     -0.334856     -0.053282
O       7.75341      9.64620     11.68133         0.672292     -0.193467      0.263165
O      11.67840      2.06946      2.80485        -0.215705     -0.369948      0.017954
O      11.72622      1.95757     15.89574         0.371355     -0.916733      0.438701
O      11.69751     13.53292      2.92344        -0.146891      0.450437     -0.478785
O      11.74704     13.65100     16.16391         0.045273     -0.215060     -0.357229
O      11.61946      1.90790      7.31031         0.101647      0.138411     -0.409383
O      11.60021     13.63735      7.36940        -0.395748      0.280697     -0.381039
O      11.62556      1.92631     11.63504         0.031207     -0.147706      0.504553
O      11.74550     13.60680     11.65737        -0.652842      0.178156      0.436670
O      11.66630      5.81455      2.76260        -0.752065      0.643090      0.491824
O      11.66408      5.86586     15.94272         0.637187      0.145539      0.431520
O      11.70421      5.79598      7.18645        -0.875343      0.413314      0.162684
O      11.65071      5.80605     11.84798         0.328172     -0.099312     -0.624087
O      11.62006      9.72288      2.96987        -0.513857      0.429787     -0.360503
O      11.76784      9.89680     16.07556        -0.563333     -0.197004      0.338479
O      11.67328      9.72251      7.24279        -0.295759     -0.134172     -0.597086
O      11.56693      9.67816     11.69270         1.800269      0.511261     -0.468981
O       1.97926      3.79150      2.57713        -0.734809      0.696667      0.691407
O       1.93382      3.89005     16.18430        -0.427900     -0.560562     -0.781666
O       1.93471     15.54226      2.88201        -0.124024      0.384441     -0.162607
O       2.01843     15.57281     15.86607        -0.227064      0.408585      0.448908
O      13.63459      3.91421      2.70085        -0.213709      0.114449      0.151113
O      13.64232      3.91239     15.99420         0.133967      0.540737      0.229414
O      13.52295     15.58601      2.83772         0.332519     -0.355998     -0.357912
O      13.83765     15.56774     16.11717        -0.916955     -0.045209     -0.381595
O       1.98719      3.88365      7.19285        -0.085054     -0.949369      0.356265
O       1.72437     15.57390      7.26570         0.532377     -0.100771      0.104251
O      13.64229      3.88348      7.34569        -0.204652     -0.305616     -0.383855
O      13.47420      0.00598      7.24813         0.748885      0.002910      0.502638
O       1.87012      3.91746     11.59185         0.160808     -0.036697      0.061372
O       1.94588     15.57564     11.70129        -0.209445     -0.038016     -0.167240
O      13.54441      3.87119     11.67249         0.285641      0.341553      0.335757
O      13.66400     15.55942     11.61524        -0.308586      0.333072      0.226720
O       1.78578      7.72073      2.81584         0.138539      1.048631      0.024285
O       1.79006      7.88890     16.15536         0.755339     -1.079467     -0.117747
O      13.60028      7.80722      2.91705        -0.046710     -0.029087      0.192758
O      13.58211      7.93435     16.00358         0.093396     -1.218569      0.326850
O       1.94957      7.79212      7.18788         0.054269      0.108225      0.270628
O      13.62817      7.76008      7.16922        -0.023276      0.360019      0.257099
O       1.84723      7.84794     11.42978         0.049604     -0.991830      0.727902
O      13.52563      7.81717     11.62946         0.226828     -0.201508      0.040975
O       1.89024     11.68499      2.92007        -0.077512     -0.675182     -0.149750
O       1.99675     11.70851     15.99309        -0.464727     -0.747369      0.280130
O      13.65053     11.74522      3.03932        -0.404088     -0.137152     -0.709011
O      13.69897     11.74187     16.25479         0.042963     -0.528006     -0.610696
O       1.82143     11.64345      7.34278         0.550621      0.622964     -0.617175
O      13.54894     11.66236      7.10280        -0.007510      0.425407      0.528558
O       1.94811     11.62836     11.56641        -0.783482      0.637327      0.296956
O      13.59405     11.62468     11.61973         0.172709      0.039971     -0.081177
O       5.79343      3.90183      2.80599         0.254253     -0.288225     -0.263733
O       5.83142      3.81946     16.03447         0.017760     -0.145497     -0.055029
O       5.80254      0.01823      2.83623         0.039097      0.158057     -0.240170
O       5.93864     15.51966     15.80145        -0.409443      0.699047      0.632750
O       5.76143      3.84925      7.15948        -0.104406     -0.470102      0.003945
O       5.91490     15.53312      7.08705        -0.316434      0.303290      0.505749
O       5.71612      3.86113     11.49802        -0.027516      0.963837      0.338958
O       5.77450     15.50731     11.60785         0.234127      0.366698      0.308546
O       5.88869      7.79947      2.78619        -0.474289     -0.405387     -0.189874
O       5.85218      7.74798     16.07659        -0.307077      0.417959      0.279916
O       5.70163      7.68000      7.14837         0.539620      1.458926      0.181183
O       5.81248      7.77252     11.73477        -0.272844     -0.636464     -0.511207
O       5.84384     11.71064      2.64371         0.040682     -0.189178      0.541282
O       5.83493     11.70836     16.00723         0.002421     -0.458005      0.645382
O       5.74000     11.70815      7.18702         0.483130     -0.500325      0.065566
O       5.81456     11.57787     11.73410         0.566852      0.709136     -0.227691
O       9.70710      3.96032      2.77032        -0.116339     -0.233423      0.261077
O       9.83011      3.79088     15.97425        -0.449120      1.087723      0.336709
O       9.89800      0.00725      2.81345        -0.661467     -0.725142     -0.078526
O       9.74513     15.53269     15.91759         0.100755     -0.117932      0.790104
O       9.73630      3.91676      7.12135         0.316700      0.454150      0.062873
O       9.53389      0.02879      7.16069         0.858789     -1.036516     -0.184147
O       9.59408      3.88251     11.62700         0.733430     -0.398130      0.362262
O       9.68741     15.55182     11.76876         0.275448     -0.093068     -0.130698
O       9.52594      7.87349      2.73470         0.720709     -0.626647      0.463757
O       9.81178      7.79770     16.05017        -0.311372      0.423432     -0.045862
O       9.75299      7.80908      7.15882         0.140911     -0.382944      0.154752
O       9.80495      7.73188     11.67303        -0.501569      0.433062      0.249170
O       9.75474     11.75983      2.89558        -0.533060     -0.242508     -0.357053
O       9.73150     11.64539     16.13743         0.195856      0.336718      0.751095
O       9.76992     11.67066      7.28448        -0.327954      0.040538     -0.596829
O       9.63822     11.57587     11.65097         0.695909      0.668474      0.051194
