  # total energy = -7882.67036639 
CRSYTAL
PRIMVEC
    15.3600000000000000    0.0000000000000000    0.0000000000000000
     0.0000000000000000   15.3600000000000000    0.0000000000000000
     0.0000000000000000    0.0000000000000000    17.440000000000000
PRESSURE
1.40036 0.995964 -5.19 0.30361 0.465922 -0.026576
PRIMCOORD
320 1
Pb       3.81730      3.74835      4.36209         0.297991      0.313079      0.098745
Pb       3.80072      3.73749     17.40742         0.355498      0.347018     -0.113459
Pb       3.76671     15.29122      4.39024         0.191795     -0.200137     -0.128838
Pb       3.69681     15.29273     17.31545         0.630335     -0.020051      0.244047
Pb       0.06595      3.73059      4.31181        -0.296282      0.318533      0.296686
Pb       0.10952      3.85614      0.00840        -0.272459     -0.069950      0.117373
Pb       0.05357     15.31069      4.28018        -0.084934     -0.261472      0.233146
Pb      15.23300     15.26334     17.41004         0.335180     -0.001288      0.422845
Pb       3.72926      3.82224      8.75726         0.207325      0.473198     -0.113837
Pb       3.85058      0.03028      8.66355        -0.151166     -0.156446      0.220593
Pb      15.23622      3.96834      8.70354         0.545701     -0.170642      0.206088
Pb      15.19508      0.05954      8.75525         0.489189     -0.167392      0.141003
Pb       3.78465      3.76505     12.94976         0.214642      0.200743      0.321139
Pb       3.71585      0.00087     12.89926         0.378317      0.264217      0.389041
Pb       0.03973      3.74327     13.10215         0.284892     -0.162885     -0.242860
Pb      15.33693     15.28536     13.02773         0.285158      0.303287      0.068226
Pb       3.82878      7.64616      4.32254         0.057737      0.078610      0.390391
Pb       3.74778      7.53482     17.34745         0.056704      0.590030      0.683820
Pb       0.08393      7.80505      4.30321        -0.159381     -0.548618      0.199622
Pb      15.19085      7.60897     17.37720         0.869693      0.311347      0.669878
Pb       3.83250      7.72764      8.71571        -0.021633     -0.324525     -0.463018
Pb      15.34356      7.66662      8.70010         0.395555      0.265578     -0.290644
Pb       3.79320      7.56198     12.96387         0.398924      0.160421      0.365350
Pb      15.34587      7.57478     13.12772         0.187249      0.488850     -0.031014
Pb       3.79612     11.54594      4.31872        -0.310842     -0.388514      0.322727
Pb       3.84450     11.52748     17.34623        -0.425640     -0.484242      0.051892
Pb      15.28164     11.56649      4.31439         0.591213     -0.006169      0.158599
Pb      15.23653     11.54306     17.30415         0.255459     -0.178705      0.648998
Pb       3.83799     11.52023      8.70877         0.091625      0.071332      0.142784
Pb      15.26183     11.44039      8.74046         0.284281      0.128532      0.131208
Pb       3.83912     11.43224     12.97324         0.246096      0.214585      0.527076
Pb       0.13314     11.52664     13.05259        -0.320271     -0.417209      0.501556
Pb       7.72104      3.67066      4.33151        -0.201423      0.705012      0.463481
Pb       7.56011      3.80954      0.02185        -0.002611     -0.201746     -0.362801
Pb       7.75352     15.28490      4.38447        -0.454616     -0.264270      0.425304
Pb       7.58332     15.34264     17.39869        -0.056337      0.192385      0.123943
Pb       7.65077      3.86962      8.63516        -0.084764     -0.043742      0.530559
Pb       7.64423     15.33478      8.66236        -0.133110     -0.056686      0.159798
Pb       7.80839      3.95067     13.06690        -0.445903      0.269206      0.247448
Pb       7.56118      0.17301     12.96485         0.486912     -1.005083      0.530558
Pb       7.72401      7.56686      4.31904        -0.118403      0.017849      0.245994
Pb       7.52898      7.72654     17.41151         0.225087      0.019454     -0.078481
Pb       7.67915      7.69929      8.68224         0.100951     -0.032215      0.101786
Pb       7.61935      7.68501     12.97102         0.341980     -0.042734      0.383322
Pb       7.70159     11.45653      4.36696        -0.309700     -0.170451     -0.010752
Pb       7.60128     11.52108     17.40785         0.372943     -0.282637     -0.114472
Pb       7.63235     11.56055      8.65782         0.293646      0.012976     -0.115428
Pb       7.69563     11.50030     12.95260        -0.005602      0.181668      0.666654
Pb      11.42742      3.74317      4.25075         0.544369      1.155981      0.849476
Pb      11.63244      3.80391      0.05238        -0.248772      0.211416     -0.025932
Pb      11.52437     15.21938      4.33271         0.327609      0.278883      0.664499
Pb      11.35288     15.26088      0.06065         0.456517     -0.012451     -0.066389
Pb      11.38084      3.95199      8.66545         0.190779     -0.328360      0.307235
Pb      11.46710      0.00661      8.66938        -0.029854      0.003523      0.458861
Pb      11.59596      3.72350     13.18114        -0.240621      0.291474     -0.104322
Pb      11.55622     15.34357     12.98270        -0.521511     -0.252963      0.810578
Pb      11.46295      7.66340      4.22506         0.315731     -0.183470      0.338837
Pb      11.50475      7.64158      0.02711        -0.204822      0.217052     -0.101812
Pb      11.52343      7.69987      8.67100         0.044428      0.113450      0.181398
Pb      11.44317      7.61207     13.10722        -0.229723      0.129344      0.298567
Pb      11.55272     11.45843      4.26283         0.182992     -0.206686      0.278278
Pb      11.35390     11.45557     17.39991         0.328659     -0.078361     -0.017002
Pb      11.58580     11.51661      8.64145        -0.378452     -0.129310      0.404609
Pb      11.55346     11.47151     13.02214        -0.211123      0.088767      0.516008
Ti       1.93697      1.88343      2.32364         0.153825      0.135824     -1.352677
Ti       1.91042      1.87335     15.45854         0.127009      0.398024     -2.397065
Ti       1.89808     13.35465      2.28127        -0.651425      0.070439     -1.246334
Ti       1.86004     13.41238     15.35667         0.470704     -0.098234      0.580128
Ti      13.48672      1.85712      2.38984        -0.152474      0.666414     -1.738235
Ti      13.42094      1.86507     15.55818         0.140867      0.447576     -0.428837
Ti      13.36179     13.40216      2.33094         1.263112     -0.420083     -1.666214
Ti      13.38446     13.45532     15.37423        -0.478840     -0.460994     -1.007484
Ti       1.89198      1.90401      6.68097         0.301452     -0.424126     -0.574902
Ti       1.88448     13.39255      6.76919         0.669110      0.305457     -1.183422
Ti      13.49625      2.02106      6.70933        -0.959057     -0.258539     -1.734563
Ti      13.49407     13.48300      6.74118        -0.648195     -0.592955     -1.741226
Ti       1.88946      1.92846     10.98076         0.378747      0.273584     -0.597997
Ti       1.94491     13.44232     10.99075        -0.078012     -0.074246     -1.521900
Ti      13.39129      1.86587     11.07258         0.773200      0.703138     -0.710040
Ti      13.48764     13.37184     11.13861        -0.483259      0.128276     -1.385966
Ti       1.91045      5.74027      2.38148         0.138398      0.216827     -1.989603
Ti       1.86724      5.73456     15.38049         0.450535      0.636789     -0.972835
Ti      13.47402      5.68357      2.36190        -0.136404      0.837856     -0.458958
Ti      13.43822      5.78757     15.37132        -0.870558     -0.631183     -0.976205
Ti       1.88876      5.70063      6.63529         1.171478      0.972341     -0.375751
Ti      13.49212      5.80006      6.64560        -1.456530      0.546452     -1.919045
Ti       1.90073      5.78678     11.05169         0.822660     -0.775826     -1.666009
Ti      13.45778      5.74246     11.14445        -0.231807     -0.101968     -0.397881
Ti       1.96206      9.55989      2.25047        -0.171157      1.041308     -1.013276
Ti       1.87561      9.59152     15.47492         0.252850     -0.225767     -1.192442
Ti      13.56583      9.52488      2.33814        -1.745246      0.625624     -1.633282
Ti      13.39442      9.56737     15.38915         0.334286      0.502110     -1.034816
Ti       1.92394      9.64090      6.79047         0.868795     -0.449485     -1.275581
Ti      13.51322      9.58686      6.66565        -1.203698      0.182727     -1.549977
Ti       1.95804      9.61145     11.07498        -0.310460      0.179163     -2.093108
Ti      13.49103      9.55928     11.16488        -0.012780     -0.156899     -1.039831
Ti       5.79868      1.81467      2.46467        -0.190619      0.172614     -1.360400
Ti       5.76481      1.87426     15.31975         0.238249      0.098755      1.033674
Ti       5.76989     13.36378      2.36493        -0.413339      0.483710      0.248311
Ti       5.72519     13.40343     15.32301         0.156118      0.597852     -2.450024
Ti       5.75096      1.99219      6.66923        -0.694202     -0.359810     -0.246407
Ti       5.72363     13.49581      6.68043        -0.303549     -0.375614     -1.352657
Ti       5.81941      1.97021     10.99801        -1.521319      0.180177     -0.735668
Ti       5.78889     13.42179     11.06594        -0.435773      0.410524     -1.347119
Ti       5.73649      5.67287      2.37056        -0.280157      0.070087     -1.554688
Ti       5.70582      5.74739     15.44851         0.569402     -0.499587     -1.992763
Ti       5.76714      5.74051      6.73188        -0.689352      1.117268     -0.883762
Ti       5.84595      5.74739     11.03059        -1.643692     -0.612841     -1.405198
Ti       5.76177      9.48366      2.40044        -0.162886      0.843060     -1.476116
Ti       5.70662      9.62975     15.34095         0.172817     -0.356179     -1.588813
Ti       5.82516      9.61525      6.70432        -0.543135     -0.558785     -1.320424
Ti       5.80475      9.60162     11.03896        -0.006697     -0.215701     -0.491719
Ti       9.66356      1.87230      2.42717        -0.914483     -0.340557     -0.992652
Ti       9.65035      1.94948     15.50707        -0.848899      0.361201     -1.453089
Ti       9.55609     13.44438      2.36959         0.412305     -0.226905     -1.097125
Ti       9.51263     13.53298     15.34715         0.791452     -1.443764     -1.347952
Ti       9.62837      1.87274      6.69542        -0.139811      0.758655     -0.607170
Ti       9.65813     13.43965      6.69404        -1.261331     -0.512067     -0.745807
Ti       9.62184      1.96338     11.11824        -0.386762     -0.374502     -1.816155
Ti       9.61040     13.47177     11.10377         0.237914      0.191125     -0.863018
Ti       9.55124      5.70932      2.24637         0.617367      0.655328     -0.059023
Ti       9.58136      5.78505     15.57165        -0.331201      0.011019     -1.162984
Ti       9.62639      5.76931      6.68003        -0.276183      0.055410     -1.659247
Ti       9.68744      5.76848     11.01214        -0.835926      0.415476     -1.037705
Ti       9.60670      9.63276      2.36100         0.310622     -0.370135     -1.983194
Ti       9.52918      9.58441     15.40525         0.442766      0.180673     -0.263601
Ti       9.70609      9.57568      6.66133        -0.394204      0.511521     -0.497025
Ti       9.69326      9.60496     11.03248        -0.615753     -0.562202     -1.357368
O       1.81951      2.00626      0.45492         0.766612     -0.159549      0.908132
O       2.07511      1.91219     13.49408        -0.932873     -0.103046      2.209090
O       1.82243     13.43962      0.43651         0.481010      0.028813      1.382220
O       1.81270     13.45811     13.60699         0.121075      0.171474     -0.749094
O      13.36024      1.95716      0.53579         0.446720     -0.211360      1.202419
O      13.45323      1.88396     13.78216        -0.384830      0.085921     -0.373125
O      13.50167     13.51556      0.47863        -0.295172     -0.378682      1.285782
O      13.49106     13.49729     13.53449        -0.025495      0.061071      0.958582
O       1.86106      1.88382      4.82000        -0.093941      0.174771      1.039118
O       1.87706     13.35158      4.91332         0.287866      0.328032      0.906523
O      13.62695      1.99129      4.89113        -0.569857     -0.336024      1.004592
O      13.36491     13.48051      4.88030         0.177528     -0.033247      1.388818
O       1.98769      2.04027      9.16446        -0.523849     -0.381777      0.785389
O       1.93882     13.31717      9.20295        -0.374534      0.344975      0.272236
O      13.44569      1.94346      9.29613         0.013778     -0.076483      0.114832
O      13.43217     13.40472      9.26790         0.292814     -0.066002      1.027155
O       1.98648      5.78215      0.48761        -0.153931     -0.497345      1.513420
O       1.86864      5.68775     13.53030         0.055746      0.437223      1.300917
O      13.50701      5.81022      0.56398        -0.261396     -0.414761      0.184475
O      13.40103      5.88054     13.52268         0.228910     -0.562348      1.228788
O       1.94756      5.74662      4.79678        -0.150179      0.093647      1.070021
O      13.33927      5.82063      4.85328         0.383924     -0.051061      0.753458
O       1.97331      5.64914      9.16173        -0.802483      0.448481      1.816692
O      13.45957      5.67257      9.32857         0.283713      0.308875      0.815928
O       2.07520      9.62792      0.46978        -0.287166      0.125870      0.203184
O       1.90443      9.67180     13.62299         0.147411     -0.300863      0.729406
O      13.58016      9.59081      0.48741        -0.388004     -0.163558      1.152630
O      13.42506      9.59605     13.56050         0.014303     -0.268636      1.030300
O       1.90399      9.79497      4.94934        -0.195037     -0.734629      1.315837
O      13.48423      9.60274      4.83675         0.039711     -0.027774      0.617075
O       2.00178      9.62003      9.10436        -0.583900     -0.089464      2.508645
O      13.45708      9.63043      9.31128         0.139285     -0.143398      1.074757
O       5.86637      1.84506      0.63394        -0.263766      0.091540      1.088729
O       5.77360      1.85461     13.59287        -0.019062      0.187409     -0.914633
O       5.79536     13.42160      0.59017        -0.119856     -0.112947      0.129589
O       5.84096     13.37669     13.44764        -0.379288      0.161208      1.651340
O       5.73686      2.05007      4.86393        -0.052437     -0.500426      0.587477
O       5.64166     13.51602      4.82327         0.265930     -0.114492      1.408044
O       5.69576      1.97184      9.21576         0.185599     -0.087958      0.412817
O       5.73700     13.41834      9.19471         0.494063      0.110154      1.286883
O       5.67315      5.74487      0.50781         0.130854     -0.322265      0.917327
O       5.72402      5.66200     13.58392         0.252945      0.453500      1.642869
O       5.72299      5.81415      4.89131         0.145544      0.007819      1.093359
O       5.79512      5.66058      9.20987         0.049171      0.448373      0.993524
O       5.83738      9.61709      0.52374        -0.180364     -0.001047      1.728857
O       5.75280      9.65242     13.45444        -0.100122     -0.055012      1.681509
O       5.84036      9.44171      4.85437        -0.187388      0.400869      1.225089
O       5.81130      9.66333      9.23735         0.052800     -0.099782      0.702294
O       9.52441      1.85069      0.66667         0.331667     -0.141355     -0.114012
O       9.69008      1.94527     13.63915        -0.122496      0.318665      1.332291
O       9.56901     13.56608      0.57620         0.022669     -0.546304      0.329355
O       9.53187     13.52283     13.53276         0.212663     -0.142918      1.088765
O       9.62593      1.95987      4.87392        -0.134321     -0.324831      1.155363
O       9.54283     13.59049      4.86158         0.608843     -0.802091      0.949935
O       9.59514      1.92687      9.29730         0.088462     -0.056951      0.688381
O       9.54955     13.49723      9.29657         0.194894      0.159266      0.460020
O       9.68413      5.89249      0.45883        -0.659364     -0.468809      0.768148
O       9.52547      5.81088     13.73965         0.023808     -0.478433      0.227105
O       9.58838      5.70928      4.79998         0.047798      0.142593      1.808986
O       9.67837      5.81153      9.20259        -0.065904     -0.297082      0.538404
O       9.65264      9.69445      0.45479        -0.312774     -0.427936      1.879999
O       9.62633      9.60613     13.61048        -0.176833     -0.114332      0.384919
O       9.73260      9.64270      4.84576        -0.484677      0.166370      0.648071
O       9.76551      9.57843      9.20523        -0.221077     -0.093739      0.903111
O       3.82340      1.96620      2.76957         0.023135      0.131088     -0.318108
O       3.86534      1.82349     15.73224        -0.433464      0.547422      0.521351
O       3.76538     13.31053      2.66210         0.570487      0.339946     -0.099523
O       3.79005     13.54497     15.59869         0.620565     -0.255380      0.694145
O       0.04498      1.86410      2.68529        -0.710158     -0.013846      0.139730
O       0.01852      1.99955     15.73674        -0.616944     -0.307225      0.261148
O      15.28684     13.41557      2.75280         0.881154      0.563904     -0.113451
O       0.02320     13.52731     15.78389        -0.819176     -0.101751     -0.194952
O       3.74885      2.03224      6.99152         0.692126     -0.265321     -0.012195
O       3.82191     13.45369      7.11053         0.194398      0.003673     -0.116750
O      15.28367      1.88527      7.06644         0.932521      0.060484      0.540344
O      15.35285     13.33464      6.95156        -0.307250      0.473179      0.621476
O       3.83199      1.90587     11.45353         0.353976     -0.287856     -0.551946
O       3.81658     13.53945     11.26313         0.707638     -0.296081      0.542828
O       0.01961      1.88705     11.40898        -0.565819      0.542090      0.117872
O       0.00507     13.39895     11.44921         0.153358     -0.113987     -0.083022
O       3.82853      5.64231      2.72123        -0.193273      0.182998      0.173728
O       3.80422      5.78068     15.75534        -0.101401     -0.236110     -0.099076
O       0.04409      5.92196      2.63508        -0.835177     -0.503107      0.413452
O      15.33950      5.75376     15.76082        -0.614677      0.102124     -0.206697
O       3.83432      5.81477      7.13277         0.142896     -0.339470     -0.589207
O      15.33314      5.81815      7.00760         0.565675     -0.008038      0.362278
O       3.77110      5.75637     11.46425         0.434269      0.234272     -0.252785
O       0.08060      5.67141     11.50500        -1.317739      0.329827     -0.247670
O       3.74854      9.65482      2.73901         1.958201     -0.062528      0.132344
O       3.88063      9.61199     15.77495        -0.338758      0.123892     -0.050190
O      15.34904      9.52817      2.67305         0.672816      0.068320      0.232114
O       0.03450      9.58636     15.80476        -0.636169      0.019504     -0.142160
O       3.86364      9.52501      7.07026         0.472273      0.417976     -0.106876
O      15.32461      9.61844      7.05538         0.980768     -0.119259      0.517708
O       3.83565      9.59166     11.40665         0.020630     -0.060501     -0.022849
O       0.04345      9.62649     11.46239         0.231297      0.279157     -0.268290
O       7.70160      1.71862      2.84942         0.141101      0.325075     -0.180691
O       7.67276      1.96372     15.77975         0.396132     -0.253751      0.115917
O       7.72497     13.52726      2.74257        -0.990505     -0.100665      0.079206
O       7.68502     13.35205     15.75201        -0.501670      0.104402      0.147363
O       7.56968      1.91758      7.11644         1.479291     -0.019028     -0.378578
O       7.61435     13.45867      7.04496         0.818218      0.356488      0.119659
O       7.65441      2.01312     11.43275         0.956957     -0.075841      0.080909
O       7.75145     13.43078     11.45755        -0.796558     -0.249915     -0.486373
O       7.63710      5.77956      2.56868         0.585638      0.184049      0.268652
O       7.61523      5.68346     15.80981         0.123138      0.189371      0.390418
O       7.71833      5.79316      7.18056        -0.068547      0.118091     -0.576058
O       7.63183      5.76112     11.40660         1.673122     -0.307365      0.295713
O       7.66285      9.50259      2.77232        -0.024304      0.306069     -0.161931
O       7.63965      9.71440     15.75010        -0.060009     -0.332707      0.039703
O       7.74230      9.54020      7.08649         0.137067      0.762996     -0.157231
O       7.70637      9.66012     11.45169        -0.047416     -0.394316     -0.485231
O      11.52200      1.97691      2.82923         0.913375     -0.454203     -0.587038
O      11.48291      1.88562     15.95370         0.361080     -0.186517     -0.159932
O      11.50569     13.28862      2.64496         0.257073      0.515588      0.353647
O      11.47839     13.41893     15.68620         0.388786      0.142195      0.232078
O      11.50055      1.92186      7.05727         0.125575      0.198932     -0.044045
O      11.44293     13.50329      7.14254         1.322591     -0.199125     -0.243332
O      11.49428      1.90873     11.48972         1.392970     -0.104552      0.044166
O      11.57980     13.49749     11.54082        -0.081935     -0.296642     -0.455318
O      11.46488      5.64496      2.54355         0.160242      0.017949      0.491611
O      11.46102      5.89766     15.77785         1.390299     -0.360509      0.129666
O      11.51178      5.76602      7.17776        -0.040332     -0.014812     -0.548714
O      11.48690      5.85031     11.37522         1.756565     -0.099172      0.348052
O      11.50117      9.76521      2.65534         0.252601     -0.929754      0.054186
O      11.57889      9.48928     15.76129        -0.304272      0.564646      0.174961
O      11.61220      9.59739      6.98968        -1.044162      0.185472      0.431353
O      11.48679      9.40300     11.49624         1.259642      0.693172     -0.084949
O       1.76600      3.85352      2.64924         0.464430     -0.375461      0.046496
O       1.77042      3.91735     15.76212         1.185514     -1.173484      0.128161
O       1.95614      0.01797      2.61672        -0.056762     -0.796309      0.267049
O       1.91701      0.06341     15.79961        -0.423386     -0.556328     -0.149988
O      13.50276      3.80636      2.74831         0.165065      0.086852     -0.146467
O      13.29683      3.88917     15.80365         0.300248     -0.083940     -0.153229
O      13.44561     15.34669      2.67557        -0.430902     -0.010231      0.269514
O      13.40401     15.31066     15.84700         0.137407      0.785523     -0.061749
O       1.84436      3.82960      7.00511        -0.282160      0.210312     -0.158087
O       1.97084     15.35538      7.08888        -0.646218      0.085671     -0.091511
O      13.45059      3.94536      6.99985         0.033946     -1.461694      0.441666
O      13.42933     15.33228      7.17438         0.027877      0.503709     -0.215174
O       1.97794      3.83278     11.37189        -0.408258     -0.068131      0.040709
O       1.86513     15.34072     11.24145         0.025901      0.363332      0.497322
O      13.42651      3.83847     11.55925        -0.030235     -0.300299     -0.122274
O      13.57778     15.34378     11.38131        -0.679949      0.281891      0.114523
O       1.88674      7.74767      2.66865         0.618612     -1.168825      0.437293
O       1.87414      7.68715     15.93419         0.174711     -0.410429     -1.054640
O      13.33043      7.63395      2.69474         0.140425      0.610013     -0.011890
O      13.48427      7.64953     15.76633         0.035493      0.207890     -0.028210
O       1.97438      7.64646      7.11495        -0.864684      0.247800     -0.270214
O      13.40581      7.71130      7.08178         0.446482     -0.359060      0.279668
O       1.90054      7.74748     11.42103        -0.113401     -0.732243     -0.153033
O      13.58054      7.69242     11.52504        -0.161847     -0.856583     -0.435785
O       1.82547     11.49184      2.68365        -0.134355      0.463739     -0.122704
O       1.92880     11.52941     15.74425         0.042053      0.248221      0.141467
O      13.51510     11.50692      2.67713        -0.244386     -0.155887      0.097690
O      13.54084     11.55014     15.69649        -0.491455     -0.292179     -0.025211
O       2.00403     11.51926      7.20380        -0.508926     -0.018401     -0.438233
O      13.42191     11.52141      7.09951        -0.019951      0.381050     -0.033336
O       2.00952     11.57574     11.45631        -0.422958     -1.020629     -0.077888
O      13.46366     11.46272     11.55854        -0.399492      0.457750     -0.510348
O       5.87876      3.81291      2.81073        -0.371709     -0.400572     -0.439493
O       5.72468      3.78182     15.83869        -0.221646      0.214747     -0.004361
O       5.66888     15.30583      2.86682        -0.010562      0.001172     -0.472009
O       5.81974     15.27937     15.74544        -0.001685      0.535189      0.094666
O       5.75384      3.89524      7.05126         0.156958     -0.436063     -0.054099
O       5.69878      0.07389      7.09068        -0.158819     -0.261403     -0.220997
O       5.75671      3.86430     11.36434        -0.226437     -0.569235      0.315520
O       5.81227     15.35403     11.34211         0.151491      0.317400      0.101364
O       5.64574      7.61091      2.69571         0.167197      0.538424     -0.001701
O       5.79359      7.73850     15.75732        -0.002287     -0.691626     -0.184839
O       5.86122      7.73827      7.24509        -0.561752     -0.640268     -0.549578
O       5.73767      7.64649     11.40498         0.045711      0.612073     -0.021592
O       5.84486     11.48466      2.81890        -0.067819      0.150383     -0.344652
O       5.70575     11.55927     15.71901        -0.051991     -0.233050      0.412991
O       5.78621     11.56865      6.91005         0.020460     -0.778035      0.403968
O       5.68088     11.51553     11.33889         0.367663      0.162361      0.166944
O       9.49251      3.76475      2.76669         0.123468      0.728897     -0.606993
O       9.69629      3.82265     15.97785        -0.377878     -0.074881     -0.390070
O       9.83942     15.30303      2.79029        -0.825284      0.406732     -0.272256
O       9.60180     15.32419     15.89504        -0.303142      0.875876     -0.343656
O       9.49556      3.86734      7.10856         0.684810     -0.675944     -0.305815
O       9.63260      0.00191      7.02602        -0.575355      0.491570      0.335889
O       9.77812      3.86968     11.39619        -0.808128     -0.019976      0.560809
O       9.63965      0.04634     11.45984        -0.219365     -0.041591     -0.071981
O       9.57920      7.70326      2.77125         0.365112     -0.551209     -0.653930
O       9.60796      7.70583     15.82024        -0.730504      0.236422      0.256194
O       9.63648      7.70026      6.92227         0.188037     -0.229467      0.346577
O       9.58976      7.61853     11.37447        -0.616888      0.650655      0.470806
O       9.58333     11.50885      2.65507        -0.786016      0.411748      0.503027
O       9.67549     11.46385     15.84617        -0.364652      0.781464     -0.402325
O       9.62414     11.56144      7.15079        -0.109314     -0.301235     -0.594836
O       9.74490     11.48543     11.32793        -0.151868      0.444432      0.385800
