  # total energy = -7867.10496201 
CRSYTAL
PRIMVEC
    15.010000000000000    0.0000000000000000    0.0000000000000000
     0.0000000000000000   15.010000000000000    0.0000000000000000
     0.0000000000000000    0.0000000000000000    16.400000000000000
PRESSURE
18.2658 18.3911 8.45235 0.169124 -0.110175 -0.006163
PRIMCOORD
320 1
Pb       3.57910      3.67873      3.96356         0.625252      0.288285      1.360706
Pb       3.69247      3.69563     16.33531        -0.119581      0.350406      1.118535
Pb       3.82138     14.86033      4.10549        -0.196252      1.462978      0.347070
Pb       3.76190     14.97893      0.04438        -0.342371     -0.056116      0.442716
Pb       0.00422      3.78009      4.18690        -0.191125     -0.288287     -0.482634
Pb      14.95279      3.75971      0.10539        -0.224287     -0.086985     -0.105341
Pb      14.97030     14.98278      4.14162        -0.335432      0.312137      0.572908
Pb       0.04518      0.01803     16.39126        -0.485439      0.003621      0.869671
Pb       3.72825      3.71672      8.14718        -0.531625      0.443124      0.700454
Pb       3.73001      0.11667      8.20809         0.188757     -0.967147      0.293170
Pb      14.90393      3.66661      8.10313         0.029467      0.367719      0.830726
Pb       0.00666      0.08559      8.20552        -0.421057     -0.597467      0.542431
Pb       3.74593      3.65835     12.44763        -0.309028      0.520251     -0.839591
Pb       3.71601     14.97990     12.24967        -0.175019     -0.060230      0.437408
Pb      14.90256      3.77005     12.31550         0.204479      0.456438     -0.526674
Pb      14.93471      0.00459     12.32095         0.526603     -0.396027      0.136785
Pb       3.88880      7.51804      4.17105        -0.076966     -0.412478      0.311685
Pb       3.75492      7.58611     16.28082        -0.804279     -0.491709      1.037469
Pb       0.06261      7.52240      4.12418        -0.324774      0.028321     -0.111955
Pb       0.07449      7.44018      0.00776        -0.510863      0.546995      0.433391
Pb       3.74104      7.46135      8.35494         0.166012      0.188121     -0.530272
Pb       0.00106      7.50129      8.14307        -0.155601     -0.236699      0.216994
Pb       3.71335      7.34476     12.39368         0.026190      0.376452     -0.440175
Pb      14.95904      7.57689     12.31923         0.057146     -0.853532     -0.299150
Pb       3.84972     11.15770      4.02667         0.252108      0.143297      0.435763
Pb       3.76044     11.33596      0.13223        -0.362521     -0.251366     -0.446182
Pb       0.00575     11.24503      4.14332        -0.441918     -0.131180     -0.096415
Pb       0.03703     11.14464      0.03925        -0.417926      0.450363      0.315518
Pb       3.70800     11.30570      8.19540         0.051705     -0.152010      0.558845
Pb      14.99280     11.28641      8.15362        -0.028119      0.399094      0.102928
Pb       3.72871     11.12952     12.34300        -0.483961      0.557251      0.052311
Pb      14.97304     11.18330     12.29872         0.493737      0.892589      0.276621
Pb       7.42435      3.78660      4.11858         0.035533     -0.262240      0.656606
Pb       7.44045      3.67898      0.05295         0.377363      0.147810      0.354852
Pb       7.49577     14.98249      4.06025         0.214464      0.116239      0.187748
Pb       7.64823     14.94470      0.02540        -0.687389      0.211489      0.707829
Pb       7.43922      3.81673      8.24532         0.660116     -0.473212     -0.074901
Pb       7.39348     14.90750      8.22491         0.650531      0.414247      0.068385
Pb       7.47213      3.70704     12.38679         0.271799      0.133587     -0.320828
Pb       7.41992      0.09624     12.23386         0.084544     -0.546728      0.611506
Pb       7.61523      7.44759      4.19414        -0.748844     -0.075965      0.113111
Pb       7.45511      7.43945     16.38665         0.463086     -0.019266     -0.156518
Pb       7.52822      7.45408      8.11283        -0.240586      0.378099      0.147634
Pb       7.43280      7.51900     12.22528        -0.128932      0.070166      0.365928
Pb       7.44502     11.14187      4.13032         0.322611      0.097652     -0.356017
Pb       7.45869     11.22481     16.37455         0.162001      0.083949      0.170269
Pb       7.50371     11.24896      8.22376         0.131509     -0.409035     -0.066753
Pb       7.46206     11.27695     12.33236         0.145576     -0.117128      0.103073
Pb      11.37144      3.73128      4.15492        -0.867184      0.005267     -0.175158
Pb      11.22598      3.72086      0.05236        -0.171854      0.225051      0.066798
Pb      11.17465     14.94610      4.08464         0.195368      0.416083     -0.235390
Pb      11.36472      0.00230     16.34495         0.139657     -0.005845      0.718062
Pb      11.17884      3.67350      8.29885         0.382346      0.094061     -0.022817
Pb      11.21562     14.99667      8.15014         0.114580      0.224013      0.819077
Pb      11.19603      3.74063     12.35565         0.577636      0.131490     -0.117094
Pb      11.18858     14.82420     12.30502         0.626648      0.606842      0.348745
Pb      11.25039      7.50458      4.08124         0.187721     -0.306592     -0.207297
Pb      11.27745      7.44882     16.33120        -0.508761      0.324915      0.763534
Pb      11.34557      7.50667      8.19870        -0.409299     -0.204911      0.345078
Pb      11.09374      7.56477     12.36101         0.540119     -0.140831     -0.507775
Pb      11.15052     11.24565      4.09616         0.483705     -0.318316     -0.143436
Pb      11.17409     11.38550     16.38043         0.731358     -0.899677      0.231528
Pb      11.31042     11.33651      8.11335        -0.250697     -0.618910      0.730042
Pb      11.21862     11.19547     12.35265        -0.276766     -0.127766     -0.314683
Ti       1.75562      1.78718      2.19768         0.878399      0.757869      0.196298
Ti       1.80601      1.83807     14.41591        -0.299539     -0.375160     -0.819805
Ti       1.84837     13.12125      2.27088         0.550477     -0.368462     -1.082621
Ti       1.82666     13.13257     14.51556         0.401090     -0.719384     -1.931273
Ti      13.09492      1.85943      2.10553        -0.061328      0.499633     -0.097209
Ti      13.13753      1.88531     14.36788        -0.472517      0.640430     -0.102268
Ti      13.11525     13.13955      2.19444        -0.082480     -0.518264     -1.500732
Ti      13.14135     13.13756     14.43956         0.707199     -0.459644      0.078401
Ti       1.90004      1.84019      6.21536        -0.201486      0.311323     -0.537312
Ti       1.86871     13.14515      6.15669        -0.658973      0.052432      1.557486
Ti      13.08016      1.79854      6.18064         0.479357     -0.183283     -0.454825
Ti      13.07201     13.14368      6.18372         1.263048      0.177365      0.067506
Ti       1.91040      1.81250     10.29603        -1.563818      0.898003     -0.199429
Ti       1.88094     13.11913     10.30086        -0.175806     -0.915936     -0.029169
Ti      13.17579      1.84498     10.37112        -0.830233      0.889275     -0.378998
Ti      13.16785     13.12663     10.35744         0.003148      0.206151     -0.783115
Ti       1.81483      5.67434      2.15375         0.856029     -0.069403     -0.700277
Ti       1.78075      5.56088     14.43799         0.238993      0.390043     -1.203675
Ti      13.13393      5.66038      2.12132        -0.199269     -0.508428     -0.165628
Ti      13.05791      5.66222     14.42706        -0.014983     -0.962923     -1.204004
Ti       1.80914      5.61159      6.22653         0.425102      1.164438      0.410989
Ti      13.02976      5.53656      6.15147         0.950518      0.399137      0.718684
Ti       1.86416      5.55415     10.30402        -0.192413     -0.016546      0.527105
Ti      13.08785      5.69209     10.31053         0.792758     -1.073604     -0.209182
Ti       1.94381      9.41728      2.21362        -0.750386     -0.764918     -0.971225
Ti       1.83357      9.38891     14.39800         0.347952      0.498660     -0.781385
Ti      13.14327      9.40390      2.12404         0.012136     -0.269485     -0.394130
Ti      13.15318      9.37758     14.45775        -1.042540      0.649986      1.184519
Ti       1.87641      9.37903      6.21017         0.559637     -0.237243      0.463431
Ti      13.13414      9.33003      6.16561        -0.147417      0.491266      0.100380
Ti       1.81116      9.29897     10.33499         0.945337      0.879139     -0.078040
Ti      13.09697      9.44186     10.28361        -1.371579     -0.376570     -1.304630
Ti       5.61699      1.87272      2.17736        -0.290000      0.006931      0.087569
Ti       5.54695      1.75424     14.48037         1.252151      1.232465     -0.811501
Ti       5.65688     13.13940      2.14662         0.794718     -1.047235      0.443093
Ti       5.57373     13.15745     14.38795         0.053472     -1.589179     -0.122287
Ti       5.68987      1.85510      6.25998         0.293186      0.539559     -1.292155
Ti       5.59345     13.13224      6.13472         0.391796      0.145808      1.208784
Ti       5.63634      1.98653     10.24055         0.092860     -0.916159     -0.261399
Ti       5.63770     13.17736     10.37734        -0.430669     -0.531126      0.101775
Ti       5.54040      5.57990      2.14121         0.302624      0.132461      0.068212
Ti       5.58315      5.56845     14.47944         0.212218      0.382603     -0.313045
Ti       5.54873      5.58103      6.30993         0.213435      0.779811     -1.662198
Ti       5.66423      5.59911     10.34504        -1.322766      1.316659     -0.409854
Ti       5.72504      9.26235      2.03269         0.161857      1.520884      0.412072
Ti       5.57502      9.41770     14.44040         0.110727     -0.942779     -1.069646
Ti       5.58345      9.45088      6.25222         0.958990     -2.245570     -0.162548
Ti       5.52131      9.40078     10.35773        -0.224694     -0.667108     -1.081055
Ti       9.40093      1.85039      2.22184        -0.887700      0.876890     -0.140405
Ti       9.34552      1.80295     14.47786         0.339498      0.770467      0.422159
Ti       9.38929     13.04564      2.11366        -1.873218     -0.006787     -0.447018
Ti       9.33970     13.11207     14.47003        -0.019487      0.130075     -0.953986
Ti       9.38669      1.79516      6.16079        -0.483260      1.509203      0.342461
Ti       9.31972     13.06431      6.19152        -0.306715     -0.029377      0.155425
Ti       9.44758      1.80961     10.45655         0.011647      1.365570     -1.516554
Ti       9.39751     13.13059     10.32018        -0.378550     -1.114251     -0.228259
Ti       9.34564      5.57068      2.24835         0.680531     -0.193247     -1.168153
Ti       9.31025      5.55527     14.42407        -0.449719      0.004312     -0.063045
Ti       9.38674      5.56757      6.23917        -0.083689     -0.593406     -0.326760
Ti       9.42678      5.60921     10.30728        -0.233613     -0.192488     -0.866020
Ti       9.39648      9.29808      2.12364        -0.068343      0.052940     -1.132267
Ti       9.36012      9.32902     14.45150        -0.160774      0.336367     -0.335647
Ti       9.42068      9.31734      6.17458        -1.034599      0.474902      1.190521
Ti       9.26035      9.38814     10.26754         1.635836     -0.049127     -0.466137
O       1.72539      1.92184      0.41981         0.209938     -0.539227     -0.893661
O       1.88159      1.93991     12.56058         0.058181     -0.410567      1.195823
O       2.07989     13.08948      0.45344        -0.436196      0.206970     -0.049843
O       1.72663     13.14284     12.68962         0.269584      0.180298      0.277717
O      13.18914      1.86287      0.25815        -0.291399      0.258822      0.634627
O      13.26509      2.02672     12.55386        -0.304474     -0.699704      0.587499
O      12.96854     13.11063      0.34189         0.441357      0.408237      0.557599
O      13.24439     13.09236     12.62171        -0.313900      0.329535      0.566780
O       1.83715      1.89885      4.39740        -0.016158     -0.102867      0.730543
O       1.79348     13.09395      4.40444         0.459314     -0.013843     -0.753066
O      13.04231      1.83656      4.35810         0.139222     -0.326708      0.660255
O      13.06236     13.28093      4.35963        -0.078544     -0.463740      0.363713
O       1.85061      1.79606      8.43426         0.256640      0.146869      0.289403
O       1.93247     13.18592      8.44940        -0.116821     -0.085392      1.119241
O      13.02741      1.74934      8.55003         0.201100      0.337524     -0.400183
O      13.16602     13.14725      8.50695        -0.185136     -0.394879      0.572807
O       1.80049      5.68088      0.26116         0.079941     -0.218227      0.678006
O       1.96157      5.54350     12.55879        -0.730877     -0.208197      1.679578
O      13.18470      5.56738      0.28670        -0.232865      0.248495     -0.109452
O      13.05589      5.61019     12.55521         0.244339      0.267716      1.215917
O       1.83905      5.75916      4.43639        -0.197321     -0.542094     -0.510413
O      13.17537      5.57249      4.34443        -0.186011      0.180083      0.669286
O       1.88509      5.70870      8.51065        -0.228996     -0.164399     -0.295647
O      12.96571      5.59508      8.48827         0.539856      0.162130     -0.178845
O       1.84582      9.35238      0.39380         0.126339      0.345655     -0.395456
O       1.77052      9.39331     12.55656         0.104309     -0.130829      1.425919
O      13.24764      9.38607      0.30636        -0.642699     -0.022265      0.453620
O      13.08074      9.24473     12.69332         0.113290      0.549388     -1.119511
O       1.86934      9.39734      4.38762        -0.050872      0.022406      0.244881
O      13.13371      9.41620      4.33191        -0.003796     -0.120706      1.189972
O       1.98538      9.36955      8.50460        -0.292392     -0.037687      0.296371
O      13.08293      9.51266      8.39555         0.212027     -0.378099      1.599513
O       5.61224      1.87392      0.35421        -0.213212     -0.070057      0.027344
O       5.51205      1.84389     12.60443         0.280479     -0.008704      1.030330
O       5.63478     13.01876      0.37566        -0.302067      0.350433     -1.378518
O       5.63949     13.19472     12.62246        -0.084500      0.323195     -0.692022
O       5.63281      1.81922      4.41516        -0.104875      0.108717      0.426371
O       5.74109     13.05194      4.37274        -0.537443      0.538453      0.502551
O       5.64618      1.94983      8.39321        -0.118172     -0.450869      1.672531
O       5.69346     13.06468      8.57842        -0.406270      0.229954     -0.177349
O       5.53133      5.55572      0.32214         0.215251      0.045019      0.090973
O       5.63030      5.75350     12.65915         0.051313     -0.766359     -0.229738
O       5.58732      5.55002      4.43976        -0.140231      0.632257      0.884320
O       5.60075      5.60779      8.49838         0.025697     -0.331705      0.018430
O       5.74568      9.38301      0.16584        -0.378929     -0.037494      1.238432
O       5.56597      9.20374     12.58960         0.089659      0.461641      0.455168
O       5.65966      9.30425      4.37476        -0.258537      0.203752      0.653562
O       5.44816      9.40075      8.42901         0.330910      0.176585      1.295411
O       9.26434      1.96256      0.42508         0.420398     -0.060013     -0.784040
O       9.34517      1.90423     12.70015        -0.197433     -0.460528     -0.855077
O       9.27039     13.10306      0.23829         0.477679     -0.498180      1.173222
O       9.40328     13.14352     12.62162        -0.096633      0.173190      0.695870
O       9.36770      1.90021      4.37821        -0.019226     -0.646157      0.259371
O       9.28365     12.96450      4.37532         0.507792      0.666870      0.718549
O       9.63702      1.83364      8.62114        -0.958014      0.034075      0.606096
O       9.34602     13.14544      8.48368        -0.120268     -0.110530      1.043089
O       9.33750      5.57286      0.37606        -0.089297      0.110324      0.247253
O       9.39973      5.51136     12.60674        -0.607819      0.439917      0.500501
O       9.48001      5.63808      4.39837        -0.316438      0.144822     -0.018799
O       9.42559      5.65154      8.37338         0.040614     -0.215707      1.886405
O       9.39456      9.36584      0.26496        -0.664976     -0.367936      0.354050
O       9.36376      9.44398     12.58948        -0.012153     -0.463213      0.602869
O       9.44162      9.41320      4.38582        -0.085083     -0.281225     -0.092685
O       9.33113      9.33022      8.43202        -0.031068     -0.098686      1.570740
O       3.61588      1.74804      2.39708         1.698703     -0.105872      0.047452
O       3.68536      1.95699     14.80560         0.027019     -0.196943     -0.414365
O       3.81674     13.17285      2.56019        -0.620857     -0.236335     -0.434730
O       3.70740     12.94508     14.63158         1.046474      0.240823      0.668358
O      14.92893      1.84835      2.54207        -0.191492      0.323694     -0.215469
O      14.96108      1.65508     14.69002         1.152915      0.196235     -0.042663
O      14.99602     13.09275      2.41925        -0.433232     -0.431757     -0.084014
O       0.02379     13.31339     14.92510        -1.611100     -0.586650     -0.424391
O       3.82002      1.63719      6.50872        -2.032756      0.462698     -0.283621
O       3.72691     13.44152      6.43760         0.524651     -0.487213     -0.174235
O      14.98320      2.00053      6.46005        -0.053087      0.606783      0.035367
O      15.00761     12.97788      6.40889        -0.317609     -0.277956      0.181952
O       3.73112      1.84113     10.45776         0.886327     -0.115321      0.411503
O       3.75595     13.26340     10.74147         0.051860     -0.592624     -0.679684
O      15.00625      1.75167     10.52430         0.616321      0.548078      0.169852
O       0.00561     12.97382     10.59937         0.556059      0.354917     -0.205788
O       3.70932      5.72966      2.46509        -0.603104     -0.022038     -0.143246
O       3.70104      5.46057     14.69476        -0.721872     -0.363496     -0.029845
O       0.01050      5.54416      2.53113        -0.072213      0.216826     -0.423254
O      14.90493      5.75985     14.67783         1.642562     -0.128632     -0.336847
O       3.69451      5.76142      6.46604         0.164920      0.133508      0.367552
O      14.94208      5.49017      6.59923        -0.245431     -0.217791     -0.356452
O       3.72410      5.58758     10.59988         0.271964      0.214815      0.032147
O      14.97361      5.71998     10.59347        -0.122826     -0.392197      0.080561
O       3.86906      9.49541      2.36390        -0.464557     -0.722394     -0.154205
O       3.67602      9.60223     14.76856         0.355789     -0.506833     -0.077639
O      14.99992      9.56560      2.43850         0.476365     -0.021907     -0.046063
O       0.00264      9.32637     14.81947        -0.011645     -0.133260     -0.520494
O       3.74944      9.10895      6.37460        -0.428796      0.424839      0.075370
O      15.00692      9.50599      6.62897        -0.062197     -0.045367     -0.944358
O       3.71123      9.28840     10.74846        -0.347891      0.010287     -0.520867
O      14.93851      9.46126     10.65606         0.208610     -0.438297     -0.493324
O       7.47296      2.02752      2.49546        -0.376412     -0.102824     -0.401357
O       7.48318      1.61883     14.72492        -0.891195      0.247687     -0.253334
O       7.50080     13.13644      2.50433         0.834131     -0.001049     -0.499125
O       7.46365     13.25921     14.67708         0.505275      0.104009      0.101574
O       7.54530      2.06320      6.57316        -0.001563      0.028219     -0.034183
O       7.49225     12.92378      6.56059        -0.821134      0.284183     -0.271874
O       7.47520      2.01158     10.53359         0.824311     -0.155838      0.487036
O       7.47560     13.06636     10.72586         0.586887      0.140489     -0.473004
O       7.46969      5.54602      2.57547        -0.362493      0.193017     -0.882513
O       7.42469      5.75754     14.76735         0.327945     -0.112595     -0.186244
O       7.53381      5.40932      6.48221        -1.006845     -0.037167      0.045170
O       7.49280      5.61885     10.51649         0.719801     -0.196117      0.346638
O       7.55721      9.32814      2.54067        -0.981056     -0.395808     -0.629042
O       7.42111      9.19954     14.54769         1.258808     -0.130230      0.560866
O       7.51573      9.46313      6.49278        -0.668684      0.329606     -0.038696
O       7.40645      9.45185     10.54302         0.739707     -0.328096      0.195467
O      11.21794      1.85033      2.47266         0.930493     -0.171621     -0.344591
O      11.27220      1.99174     14.68305        -0.903885      0.129513      0.234522
O      11.15599     13.13796      2.47446         0.902967      0.004112     -0.056019
O      11.27312     13.14241     14.72705        -0.678188     -0.285805     -0.298447
O      11.23969      1.58960      6.44295        -0.057277     -0.362224     -0.061386
O      11.20276     13.19004      6.55100         0.226785      0.504911     -0.718038
O      11.29851      1.86283     10.74393        -1.234120     -0.755993      0.339299
O      11.28534     13.12483     10.71781        -0.896601      0.302324     -0.502163
O      11.33404      5.78358      2.31657        -1.232116     -0.338060      0.320426
O      11.15905      5.52031     14.69505         0.816493     -0.254342      0.416939
O      11.26096      5.71746      6.39737         0.084268      0.794563      0.264548
O      11.26408      5.68361     10.65707        -1.281708     -0.324372     -0.071698
O      11.20431      9.35741      2.46296         1.349359     -0.258659     -0.257781
O      11.24073      9.46064     14.79790         0.167783     -0.157575     -0.472339
O      11.23693      9.20833      6.56620         1.195957      0.454506     -0.805197
O      11.17145      9.43666     10.60292         0.539625     -0.160198      0.019581
O       1.87215      3.77395      2.43231        -0.318547     -0.317102     -0.274594
O       1.65767      3.67064     14.78264         0.176913      0.665475     -0.327377
O       1.74293     14.93064      2.63088         0.616780      0.907251     -0.761656
O       1.94849     14.97281     14.86912         0.556428      1.571916     -0.036012
O      13.03409      3.75931      2.46082         0.520550     -0.590149     -0.617311
O      13.28307      3.77000     14.68982        -0.163850     -0.112386      0.037878
O      13.04554     15.00647      2.32471         0.031369      0.124188      0.329220
O      13.00240      0.02324     14.59334         0.029054     -0.252793      0.217276
O       1.98351      3.80927      6.54138        -0.170564     -1.871576     -0.184022
O       1.51622      0.03392      6.45604         1.264778     -0.418623     -0.528200
O      12.84248      3.62544      6.46787         0.698581      1.227630      0.163204
O      13.36667     14.98675      6.59089        -0.834137     -0.436022     -0.696994
O       1.80140      3.68789     10.58693         0.006387      0.040382     -0.302648
O       1.86070     14.95421     10.67752        -0.232680      0.362872     -0.186083
O      12.99667      3.72611     10.52977         0.865018      0.646948      0.140137
O      13.20203     14.98492     10.72833        -0.636776     -0.690384     -0.009377
O       1.76445      7.57329      2.40020         0.083287     -0.761197      0.178766
O       1.92643      7.49563     14.52261         0.235897     -0.223886      0.657591
O      13.26048      7.50793      2.36001         0.092464      0.572624      0.195725
O      13.03643      7.52961     14.73717        -0.135463     -0.739124      0.039428
O       1.69668      7.52339      6.47682        -0.342034     -0.016068      0.122515
O      13.25901      7.46630      6.40876        -0.016220      0.284072      0.132301
O       1.80434      7.50452     10.68398         0.050285     -0.611151     -0.260829
O      13.00914      7.56241     10.48894         0.427755      0.574350      0.176928
O       2.01136     11.25016      2.53864        -0.466447      0.765340     -0.185322
O       1.73372     11.30314     14.72975        -0.364775     -1.547711      0.268395
O      12.97527     11.27951      2.38025         0.143667      0.016503      0.376192
O      13.19427     11.30324     14.76948         0.161442     -0.844149     -0.285330
O       2.06031     11.28845      6.54072        -0.087011     -0.564955     -0.406798
O      13.07204     11.29702      6.41718        -0.511930     -0.836066     -0.068399
O       1.97482     11.19344     10.73222        -0.138135      1.124140     -0.855935
O      13.07779     11.27270     10.73527        -0.161375     -0.541144     -0.298972
O       5.38951      3.77551      2.58110         0.860715     -1.305629     -1.176768
O       5.75280      3.66549     14.73588        -0.397825      0.122722     -0.394988
O       5.76470     15.00788      2.45979        -0.742657      0.539659     -0.223171
O       5.43817     14.94646     14.73358        -0.237584      0.876181      0.398781
O       5.41177      3.68736      6.63655         0.616200      0.854598     -0.853317
O       5.75989     14.99666      6.51568         0.614495     -0.798690      0.017852
O       5.58381      3.78647     10.70545        -0.165131     -0.759529      0.131490
O       5.78627      0.09691     10.58301        -0.827123     -0.723808     -0.334907
O       5.64204      7.47322      2.29105         0.085486     -0.026849      0.197096
O       5.35778      7.45645     14.74962         0.674796      0.366741     -0.365138
O       5.78123      7.45722      6.47631        -0.008041      0.123343      0.086059
O       5.58646      7.47589     10.53309         0.241384      0.401131      0.096834
O       5.78788     11.25118      2.42065        -0.652265     -0.804612     -0.317455
O       5.82859     11.24731     14.55891        -0.369207      0.222792      0.327719
O       5.42424     11.26623      6.48581        -0.167465      0.700640     -0.119249
O       5.51001     11.24831     10.76580         0.145251      0.409304     -0.554916
O       9.48936      3.76563      2.54876        -0.023020     -0.224332     -0.351595
O       9.09145      3.70917     14.78981         0.543738     -0.276813     -0.418002
O       9.31052     14.99927      2.34971        -0.079081     -0.546298      0.332521
O       9.47473     14.98951     14.97889         0.013437      0.313467     -1.244436
O       9.64866      3.72908      6.44822        -0.269411     -0.967308      0.224252
O       9.12169     15.00919      6.55217         0.467833     -1.335728     -0.500682
O       9.37495      3.76275     10.77057         0.191683     -0.384570     -0.782734
O       9.24944     14.97584     10.65889         0.389247      0.313543      0.086031
O       9.38833      7.44795      2.47061        -0.360884      0.445927      0.089892
O       9.40917      7.45983     14.61261         0.259984      0.035776      0.309569
O       9.22074      7.47271      6.42241         0.070667      0.120344     -0.085404
O       9.39661      7.44443     10.65369        -0.545327      1.296187     -0.213610
O       9.30809     11.16317      2.38087         0.292506      1.257380     -0.145283
O       9.33369     11.25631     14.65262        -0.435842     -0.015830      0.214309
O       9.48988     11.19523      6.61088        -0.021068      0.843542     -0.668846
O       9.38485     11.27679     10.65311        -0.291739     -0.275310     -0.436772
