  # total energy = -7865.41765344 
CRSYTAL
PRIMVEC
    15.010000000000000    0.0000000000000000    0.0000000000000000
     0.0000000000000000   15.010000000000000    0.0000000000000000
     0.0000000000000000    0.0000000000000000    16.400000000000000
PRESSURE
16.4474 16.6587 7.29111 -0.01228 0.015457 -0.040069
PRIMCOORD
320 1
Pb       3.59341      3.63057      4.08171         0.604967      0.412269      0.034798
Pb       3.80153      3.70779     16.31187        -0.240188      0.126091      1.417363
Pb       3.81493     14.93254      4.16906        -0.954247      0.404590     -0.485886
Pb       3.75586      0.05564     16.35152        -0.234968     -0.194169      0.679634
Pb      14.98392      3.78392      4.23218         0.067555     -0.541643     -0.507740
Pb      14.95343      3.86480      0.05898         0.104758     -0.649625      0.533919
Pb      14.97204     14.96753      4.22807         0.471009      0.402056     -0.995536
Pb      14.98146      0.03940     16.24321         0.498866     -0.321653      1.660169
Pb       3.84707      3.68584      8.16432        -0.012836      0.278525     -0.389308
Pb       3.86659     14.98064      8.35039        -0.378532     -0.158883     -0.245190
Pb       0.08595      3.67760      8.07012         0.200844      0.265459      0.660713
Pb       0.15642      0.01171      8.29836         0.058138     -0.272894      0.105184
Pb       3.95787      3.75712     12.35451        -1.081695     -0.339881      0.091981
Pb       3.76301      0.03146     12.30233         0.195754      0.009580     -0.118876
Pb       0.00459      3.74427     12.26570         0.353039     -0.085651     -0.046550
Pb      14.92875     15.00569     12.25594         0.102605     -0.197897     -0.411432
Pb       3.57656      7.68311      4.19318         0.311981     -1.073055     -0.837649
Pb       3.77198      7.53659     16.35013        -0.598694     -0.623303      0.745798
Pb      14.85472      7.51194      4.13521         0.344687      0.040616     -0.339286
Pb      14.95946      7.46462      0.02594         0.398672      0.263693      0.553984
Pb       3.67254      7.51217      8.33856        -0.074781     -0.648962     -0.269594
Pb      14.97963      7.46021      8.07864         0.390127      0.123095      0.267164
Pb       3.79173      7.34545     12.40421        -0.216500      0.556809     -0.316452
Pb       0.10131      7.49222     12.26353        -0.145062      0.128404      0.383727
Pb       3.61390     11.24149      3.95444        -0.186274      0.437640      0.253129
Pb       3.68380     11.29107      0.08483        -0.374478      0.610619      0.118035
Pb      14.80647     11.22525      4.21977         0.771055     -0.398390     -0.668159
Pb      14.96642     11.20271     16.37989        -0.070413      0.239719      0.019702
Pb       3.55461     11.15512      8.25356         0.382915      0.670780      0.185264
Pb      14.91438     11.15192      8.18484         0.725117      0.071531      0.252026
Pb       3.70736     11.14828     12.48188         0.076581      0.119438     -0.402237
Pb      14.98635     11.18628     12.30017        -0.158413     -0.106227      0.417664
Pb       7.44878      3.79132      4.29114         0.236002      0.030942     -0.820245
Pb       7.48867      3.77356      0.10189        -0.200041     -0.138077      0.845609
Pb       7.44728      0.06836      4.23607         0.626771     -0.611783     -0.959605
Pb       7.58254      0.03853      0.00910        -0.114734      0.072643      0.190740
Pb       7.61553      3.83018      8.24308        -0.265416     -0.014930     -0.263069
Pb       7.40718     14.78823      8.35412         0.059771      0.822540     -0.112424
Pb       7.59935      3.61715     12.38908        -0.242149      0.347098     -0.577519
Pb       7.50762      0.03145     12.29097        -0.041617     -0.312232     -0.185504
Pb       7.37968      7.47087      4.19083        -0.035104      0.438793     -0.454278
Pb       7.48551      7.43690      0.10576        -0.550728     -0.054948      0.184004
Pb       7.49994      7.52795      8.09644         0.181765     -0.746218      0.793253
Pb       7.59056      7.41296     12.33929        -1.177654      0.368296      0.093257
Pb       7.14225     11.26640      4.16296         1.466851     -0.567375     -0.226185
Pb       7.42285     11.27539      0.04348        -0.024562      0.029553      1.106224
Pb       7.36567     11.09707      8.30904         0.937627      0.712658     -0.566555
Pb       7.52461     11.19399     12.52301        -0.341075     -0.057403     -0.853255
Pb      11.44018      3.68982      4.21217        -0.953659      0.060822      0.159122
Pb      11.29093      3.84631      0.05090        -0.214632     -0.700422      0.556083
Pb      11.28582      0.02066      4.22194        -0.312046     -0.103479     -0.591734
Pb      11.30918      0.08941     16.33487        -0.389480     -0.442391      0.887721
Pb      11.40921      3.74957      8.24618        -0.843725      0.338087     -0.376428
Pb      11.34629     14.92132      8.22703        -0.269323     -0.138527     -0.275238
Pb      11.33727      3.76134     12.30125        -0.171075     -0.299709     -0.398219
Pb      11.30501     14.87136     12.28865        -0.568549      0.170437      0.562047
Pb      11.08461      7.44077      4.14989         0.304877      0.604191      0.165200
Pb      11.23123      7.43462      0.07208        -0.108601      0.699168     -0.407905
Pb      11.21926      7.53383      8.16339        -0.374515     -0.403277      0.258895
Pb      11.22743      7.46434     12.42684         0.536273      0.075315      0.016336
Pb      11.06940     11.35577      4.22922         0.004354     -1.000074      0.165796
Pb      11.09695     11.35143      0.03330         0.795547     -0.357681     -0.127580
Pb      11.13731     11.21805      8.20747        -0.240483     -0.488808     -0.241840
Pb      11.26451     11.18531     12.41086         0.151233      0.066863      0.183972
Ti       1.83915      1.87205      2.06208        -0.622178     -0.504173      0.239390
Ti       1.79835      1.91616     14.29888         2.010813     -0.217356     -0.381420
Ti       1.77152     13.22057      2.11172         0.822367      0.054787     -0.736748
Ti       1.87020     13.16739     14.21754         0.152138     -0.786060      1.454499
Ti      13.06164      1.91712      2.16497         1.317547     -1.722659     -0.259278
Ti      13.13859      1.86619     14.37693        -0.589421      0.067577     -0.297156
Ti      13.07461     13.09951      2.05801         0.416676      1.389209     -0.738172
Ti      13.14426     13.11279     14.48592        -0.729348     -1.500946     -0.496814
Ti       1.94618      1.82878      6.19489         0.826747     -0.410617     -0.615936
Ti       1.93432     13.09078      6.24952        -0.199268      0.356210     -0.941530
Ti      13.17549      1.79884      6.26978         0.011248      0.535186     -1.174957
Ti      13.20751     13.02833      6.19652        -0.937233      0.411007     -0.021237
Ti       1.98806      1.91856     10.33760        -1.384186     -0.012934      0.203615
Ti       1.83711     13.11433     10.30945         0.213270      0.208974     -0.184674
Ti      13.14113      1.83738     10.21453         0.947285      0.080438      0.862181
Ti      13.09986     13.00022     10.25523         0.882035      1.343594      0.509494
Ti       1.81077      5.56644      2.04603         0.722411      1.630077     -0.071310
Ti       1.88478      5.56871     14.42590         0.286518      0.784517     -0.578911
Ti      13.02977      5.63840      2.17837         1.464427      0.172017     -0.613626
Ti      13.17191      5.57919     14.35837        -0.593470      1.169431     -0.806401
Ti       1.93311      5.58294      6.10168         0.718100      0.585227     -0.020017
Ti      13.14881      5.64580      6.22539        -0.084487     -0.601524     -0.297439
Ti       1.80379      5.60506     10.22702         1.047158     -0.091176      0.170172
Ti      13.09787      5.58151     10.25710         1.138882      0.892660     -0.003342
Ti       1.72400      9.40332      2.11999         0.253714     -1.070796     -1.026617
Ti       1.84935      9.35361     14.47259        -0.327705      0.102035     -0.087368
Ti      12.98254      9.36561      2.09194         0.503188      0.242733     -0.148310
Ti      13.13594      9.26037     14.35515        -0.796633      1.491412      1.142031
Ti       1.79374      9.35660      6.09583        -1.094708      0.354474      0.131623
Ti      13.01268      9.33178      6.20266         0.250772      0.352624     -1.453835
Ti       1.88646      9.38823     10.35861        -0.237494     -0.323744     -0.384579
Ti      13.09337      9.30821     10.22033        -0.251853     -0.365308      0.058184
Ti       5.60448      1.87506      2.19046         0.042784     -0.108943     -0.973335
Ti       5.70091      1.90766     14.45202        -0.384607     -1.278243     -0.201332
Ti       5.59604     13.11926      2.14331        -0.429000      1.060390     -0.535966
Ti       5.61131     13.17747     14.39888        -0.601751      0.007264     -0.614804
Ti       5.74274      1.79737      6.16220        -1.306725      1.712478      0.620224
Ti       5.61242     13.10909      6.19880        -0.516949     -0.396938      0.654882
Ti       5.70674      1.90315     10.25649        -0.542713     -0.534685     -0.508006
Ti       5.57637     13.01826     10.35367        -0.473191      1.167676     -0.244907
Ti       5.52255      5.61587      2.18866         0.116357     -0.347938     -0.735675
Ti       5.65495      5.57590     14.37482        -0.016852      1.570870      0.448959
Ti       5.64824      5.61386      6.19386        -1.176935     -1.047627      0.079012
Ti       5.58722      5.56730     10.27574         0.245804      0.860800     -1.041931
Ti       5.53994      9.28728      2.04608         0.184873      0.325964      0.346147
Ti       5.58796      9.41127     14.44801        -0.388652     -0.915495     -0.860178
Ti       5.48879      9.32190      6.28551         0.464352      0.439971     -1.604510
Ti       5.63132      9.36948     10.22860        -0.664624     -1.434573      1.738425
Ti       9.35073      1.86788      2.14113        -0.088687      0.704400     -0.520812
Ti       9.44758      1.94295     14.27278        -0.556159     -1.452447      0.653043
Ti       9.37906     13.15936      2.19311        -1.320546      0.194933     -0.116401
Ti       9.29515     13.11396     14.37675         1.471738      1.421411     -0.026622
Ti       9.42114      1.83522      6.20949         0.087999      0.604048      0.080484
Ti       9.35924     13.13945      6.23963        -0.308652     -0.285722     -0.589274
Ti       9.41233      1.82170     10.12429        -0.213760      0.627188      1.076592
Ti       9.36797     13.03496     10.26589        -0.662820      0.053008      0.388866
Ti       9.32708      5.61713      2.13098        -0.491101     -0.724001      0.815408
Ti       9.36659      5.57478     14.42076         0.340578      0.558470     -0.262758
Ti       9.38758      5.62341      6.18622         0.527479     -0.833457     -0.099596
Ti       9.34260      5.60590     10.35885        -0.133876     -0.160287     -1.471966
Ti       9.32297      9.39720      2.11693        -0.706031      0.326060     -0.341808
Ti       9.26130      9.33200     14.46705         1.816713     -0.081571      0.562324
Ti       9.25606      9.35017      6.14776         0.139582      0.636600      0.013030
Ti       9.33864      9.28148     10.37893         0.515144      0.750694     -1.491405
O       2.05508      1.92489      0.24451        -1.088127      0.107976     -0.605098
O       1.88562      2.04244     12.43444        -0.386513     -0.595797      1.596597
O       2.00175     13.23832      0.28300        -0.760935     -0.508246      0.024125
O       1.81776     13.12716     12.42319         0.004109      0.051401      0.307587
O      13.06164      1.89132      0.30918        -0.026395      0.097348     -0.809062
O      13.23255      1.84710     12.56533        -0.603496      0.480720     -0.126888
O      13.15502     13.15926      0.09414        -0.265678      0.187858      1.552661
O      13.09276     13.06909     12.61926         0.151493      0.050536     -0.836918
O       1.87817      1.77157      4.36474        -0.335247      0.395771      0.415795
O       1.94064     13.22508      4.37558        -0.346941     -0.558591      0.421468
O      13.24790      1.81613      4.30989        -0.527491      0.335052      1.370888
O      13.16490     12.93385      4.31157        -0.272828      0.579774      1.110905
O       2.00922      1.98786      8.52503        -0.331612     -0.540540     -0.967410
O       1.92481     13.01370      8.47315        -0.524055      0.343099     -0.155432
O      13.20824      1.81969      8.41263        -0.302512     -0.156524     -0.571841
O      13.12194     13.12699      8.45586        -0.225718      0.131170     -0.819318
O       1.87142      5.52479      0.17581        -0.316947     -0.184790      0.462977
O       1.93537      5.61093     12.55491        -0.410280      0.149110      0.061836
O      12.94858      5.64087      0.23635         0.767286     -0.072943      0.164280
O      13.09665      5.59667     12.44770         0.279829      0.046373      0.990663
O       1.99292      5.58900      4.29065        -0.402979     -0.119656     -0.123479
O      13.18694      5.62775      4.36089        -0.250020     -0.255451     -0.130405
O       1.92704      5.61363      8.40678        -0.071219      0.395531     -0.116500
O      13.20825      5.74662      8.40093        -0.151577     -0.595752      0.116669
O       1.77021      9.35465      0.16311         0.223664      0.058493      1.102491
O       1.82126      9.41562     12.58267         0.373540     -0.297395     -0.346945
O      13.05987      9.20501      0.22398        -0.238930      0.074684      0.630749
O      13.12285      9.43643     12.57904        -0.045041     -0.395925     -1.342556
O       1.80154      9.37744      4.26666         0.175815      0.072756     -0.181310
O      13.11274      9.45200      4.31339        -0.099295      0.087884     -0.039000
O       1.73160      9.43252      8.49095         0.452986     -0.374268      0.073627
O      13.13479      9.30025      8.35600         0.034893      0.106466      0.787647
O       5.56461      1.82816      0.20994         0.656398      0.102321      0.425272
O       5.83871      1.90259     12.57842        -0.303087      0.245146     -0.024843
O       5.48162     13.17337      0.33279         0.574204     -0.073801     -1.168492
O       5.67274     13.17493     12.52049         0.001759     -0.455804      0.364715
O       5.63733      1.92732      4.30557         0.380094     -0.010397      0.296917
O       5.54250     13.07940      4.33899         0.129148     -0.238859      0.836114
O       5.57005      1.79807      8.39330         0.312889      0.220162      0.652613
O       5.53985     13.13994      8.43474         0.484692      0.410843      0.523618
O       5.68432      5.61628      0.25871         0.319044      0.358290     -0.271619
O       5.60524      5.62689     12.52299         0.189842     -0.341447      0.191271
O       5.54552      5.52904      4.36097         0.467856      0.269846     -0.376422
O       5.59772      5.58361      8.39115        -0.090478      0.187091      1.135127
O       5.55146      9.35088      0.17991         0.004433     -0.257202      0.748115
O       5.68518      9.52054     12.58884        -0.321432      0.011933     -0.201967
O       5.62107      9.26840      4.31802        -0.303145      0.689190      1.305250
O       5.66247      9.38294      8.42036        -0.370079     -0.548776     -0.357989
O       9.48009      1.81619      0.25467        -0.365373     -0.017577      0.361595
O       9.48359      1.87956     12.45914        -0.362909      0.444817      0.066332
O       9.43315     13.13975      0.31051        -0.315596      0.199855      0.104239
O       9.35609     13.13116     12.57410        -0.286872     -0.405911     -1.044622
O       9.43782      1.78358      4.39791        -0.268251      0.475447     -0.311561
O       9.31384     13.24822      4.39560         0.198611     -0.640600      0.342915
O       9.39734      1.99593      8.34095         0.273304     -0.407382      0.078755
O       9.38733     13.06918      8.42403         0.039041      0.245515      0.559002
O       9.27406      5.55362      0.29040         0.406527      0.156861     -0.919771
O       9.32817      5.80520     12.55471         0.589709     -1.250742      0.129636
O       9.43083      5.64230      4.37278        -0.061430      0.029455     -0.860987
O       9.49695      5.63237      8.49251        -0.458155     -0.101015      0.173090
O       9.42481      9.54464      0.18529        -0.271051     -0.653861      0.563548
O       9.22025      9.40688     12.59133         0.254410     -0.293610     -0.014199
O       9.34941      9.35271      4.32443        -0.704728     -0.438331      0.222507
O       9.28645      9.38640      8.39615         0.182503     -0.445996      1.335739
O       3.70294      1.82156      2.31869         1.010719      1.441975      0.510268
O       3.78581      1.50731     14.46682        -0.266053      0.816741     -0.060934
O       3.69939     12.92290      2.34194        -0.160090     -0.148482      0.412205
O       3.75893     13.37690     14.53780        -0.258404      0.299821     -0.206467
O      15.00508      1.64593      2.39102        -0.417202      0.190772     -0.441267
O      14.99302      2.11283     14.68322         0.372271      0.359664      0.160427
O      14.93142     13.33541      2.30938        -0.148548      0.087992      0.170918
O       0.06080     12.82009     14.61712        -0.519604      0.316168     -0.176321
O       3.82190      2.00744      6.28820        -0.114668      0.460544      0.453201
O       3.72141     12.88037      6.56421         1.231571      0.152410     -0.660197
O       0.05195      1.69737      6.53572        -0.025050      0.119095     -0.114195
O       0.02246     13.23473      6.47341        -0.781801      0.051565      0.063286
O       3.78419      2.14174     10.60847         0.914448      0.551026     -0.070588
O       3.71415     12.98243     10.53609         0.471479     -0.491304      0.265214
O       0.05639      1.58050     10.51958        -1.038518      0.023975     -0.366472
O      14.94626     13.43834     10.41700         0.356025     -0.194641      0.390288
O       3.73250      5.30850      2.12895        -0.356926      0.004033      0.488435
O       3.75070      5.90594     14.63818         1.043757     -0.358195     -0.192559
O      14.96567      5.96358      2.19535        -0.195468     -1.114811      0.141439
O       0.04586      5.32162     14.65120        -1.366510     -0.257155     -0.168981
O       3.77502      5.36424      6.34855         0.155175      0.248758      0.462516
O       0.09100      5.76132      6.29674        -1.302610     -0.268266      0.584204
O       3.71122      5.22739     10.52721         0.523265      0.406691     -0.278332
O       0.01202      6.07350     10.43084        -0.762237     -0.393364      0.098105
O       3.64555      9.50690      2.34260         0.672676      0.217455     -0.282434
O       3.72581      9.09083     14.57120         0.282542      0.002276     -0.026106
O      14.89707      9.08577      2.28073         0.143516      0.288529     -0.007779
O      15.00811      9.65167     14.56222        -0.484866     -0.215444      0.125639
O       3.64876      9.45467      6.55666         0.683854      0.129916     -0.308820
O      14.93961      9.21697      6.21462         0.645722      0.101445      0.823236
O       3.78620      9.75265     10.48650        -0.346246     -0.679529      0.034561
O      14.98212      9.19676     10.53768        -0.203933     -0.428484      0.123865
O       7.47931      1.61040      2.34819         0.170014      0.296412     -0.208858
O       7.62956      2.36023     14.66062        -0.626690     -1.093716     -0.425983
O       7.43830     13.27379      2.36667         1.190554      0.000350     -0.003788
O       7.45792     12.85928     14.72556         0.183543     -0.152557     -0.160189
O       7.56503      1.55625      6.42067         0.106516      0.365785     -0.091348
O       7.48420     13.46783      6.45620        -0.012563     -1.015169     -0.326716
O       7.51050      1.64193     10.43307         0.954476     -0.135881      0.037140
O       7.40399     13.43926     10.40013         1.662394     -0.411429      0.296821
O       7.48177      5.89846      2.43999        -0.042041     -0.185573     -0.295119
O       7.51510      5.21373     14.54726         0.102854      0.395419      0.143749
O       7.54029      5.73288      6.40959        -0.502163      0.428889      0.121894
O       7.48186      5.99889     10.41775         0.357732     -0.356236      0.193057
O       7.45594      9.08968      2.25921        -0.530260     -0.130356      0.006427
O       7.41022      9.66760     14.74258         1.567406      0.236322     -0.373194
O       7.37124      9.18762      6.43572         1.211864      0.103782     -0.201850
O       7.47362      9.03469     10.54392        -0.135443      0.284243     -0.382173
O      11.20538      2.10596      2.41176         0.457346      0.150579      0.191591
O      11.26130      1.50287     14.53234         0.875877      0.458264     -0.127181
O      11.20702     12.87526      2.52727         0.307363      0.477827     -0.920755
O      11.22922     13.37200     14.54435        -0.085029      0.302125      0.437987
O      11.32844      2.12103      6.41007        -0.097571     -0.568741      0.206156
O      11.25216     12.85631      6.43752         0.776974      0.567296     -0.092577
O      11.25172      2.26186     10.35814         0.588772     -0.354655      0.200792
O      11.25014     12.85196     10.47891        -0.982260      0.253643      0.244829
O      11.27695      5.25337      2.33714        -1.731316      0.593291      0.146454
O      11.24671      5.98128     14.54986         0.425198     -0.415776      0.090729
O      11.30929      5.63828      6.43425         0.063667     -0.778162      0.124750
O      11.30837      5.32026     10.42024        -0.744593     -0.324570      0.472274
O      11.14149      9.53966      2.45757         1.403264      0.240466     -0.487171
O      11.19900      8.96326     14.44447        -0.163186      0.321402      0.578489
O      11.16533      9.41353      6.29285         0.088226      0.305904      0.714369
O      11.22541      9.71873     10.42749        -0.054870     -0.389957      0.356024
O       1.63613      3.77308      2.46773        -0.114927     -1.122034     -0.289532
O       2.27158      3.72881     14.56794        -0.690915     -0.768018     -0.212559
O       2.02049      0.02935      2.32464        -0.160776     -0.837511      0.217461
O       1.59633     15.00687     14.55778         0.196846      0.514598     -0.438950
O      13.30824      3.74931      2.39693         0.615576      0.417968      0.139181
O      12.87141      3.78037     14.60807        -0.087623     -1.056129      0.017771
O      12.86452     14.99823      2.29032        -0.192826     -0.342490      0.196983
O      13.45872     14.99771     14.53036        -0.463990      0.504228      0.048628
O       1.77497      3.70776      6.45993        -0.155122      0.134723     -0.414675
O       2.12348     14.97744      6.44720        -0.546280      0.042757      0.680143
O      13.29024      3.71993      6.39013         0.272471      0.777915      0.154344
O      13.03239     14.98389      6.33961        -0.463028     -1.415106      0.341406
O       1.45051      3.80141     10.46495         0.349432     -0.172286     -0.164118
O       2.12926      0.01519     10.49738        -0.143233     -0.058210     -0.148955
O      13.52832      3.70489     10.48655        -0.795837      0.923637     -0.354935
O      12.83817      0.03518     10.56545         0.247640     -0.643350     -0.417022
O       2.08582      7.43131      2.34311        -0.093219      0.774165     -0.154645
O       1.60574      7.43719     14.69137         0.199576      0.653781     -0.469384
O      12.87586      7.45720      2.45299        -0.600528      0.836508     -0.309694
O      13.52227      7.43642     14.54274        -0.413577     -0.277800     -0.175558
O       1.97040      7.51680      6.23349         0.389954     -0.762704      0.892039
O      13.08660      7.52898      6.38853        -0.115110     -1.382739      0.211187
O       2.24149      7.52677     10.49643        -0.295044     -0.199014      0.138269
O      12.69986      7.51926     10.47965         0.868677     -0.270914      0.039609
O       1.62194     11.23709      2.33667        -0.019764      0.198021     -0.013930
O       2.14555     11.25426     14.63423         0.103729      0.411099     -0.313440
O      13.33897     11.28512      2.11555        -0.282479     -1.517224      0.345975
O      12.83710     11.15571     14.66321         0.063651      0.636781      0.101815
O       1.62116     11.21095      6.36265         0.315330      0.351381      0.306629
O      13.24112     11.13725      6.51921         0.160371      2.169442     -0.216139
O       1.65566     11.23989     10.57178        -0.182450      0.633560     -0.072887
O      13.34207     11.23071     10.47435         0.226304     -0.442856      0.043879
O       5.82666      3.75287      2.29265         0.135691     -0.775019      0.284703
O       5.37052      3.71913     14.59726        -0.034254      0.923237     -0.146491
O       5.47414     14.98773      2.45720        -0.027748     -0.013320     -0.181131
O       5.95625      0.04622     14.54761         0.345553     -0.962572      0.387158
O       5.92382      3.73893      6.49857        -0.202747     -0.852553     -0.344443
O       5.46716     15.00455      6.36979        -0.541753     -0.997857      0.085573
O       6.05093      3.77165     10.52667        -0.748055     -0.296830      0.088452
O       5.32540      0.09379     10.55959         0.429734     -0.925928     -0.354158
O       5.30255      7.46475      2.40514         0.245405      0.473845     -0.283112
O       5.95238      7.51049     14.45066        -0.263994     -0.696685      0.801495
O       5.52709      7.44781      6.48011        -0.523060      0.727446      0.076638
O       5.24754      7.43871     10.51111         0.170990      1.050481     -0.308413
O       5.74962     11.19897      2.29346        -0.159786     -0.530319      0.177625
O       5.27020     11.28152     14.67067         0.565250      0.288999     -0.092184
O       5.81750     11.23112      6.48591        -0.288546      0.086888     -0.549768
O       5.86297     11.22479     10.32716         0.528067      0.097814      0.835245
O       9.07734      3.77212      2.33654         0.053133     -0.671831      0.221922
O       9.85477      3.75589     14.56561        -0.306083      0.492955     -0.311975
O       9.52267      0.04724      2.48839         0.357074     -1.447296     -0.592644
O       8.99620      0.03197     14.39402         0.255337     -0.005706      1.033595
O       9.22021      3.78633      6.32771         0.148190     -1.319249      0.424849
O       9.71899     14.99780      6.41834         0.087034     -0.177781      0.516396
O       9.06581      3.76255     10.47895         0.410381     -0.208228      0.278747
O       9.59640     15.00175     10.49877         0.227569     -0.444979     -0.453861
O       9.59545      7.47512      2.28186         0.195119      0.303482     -0.085733
O       9.04113      7.44205     14.73095        -0.008531      0.650520     -0.243115
O       9.53063      7.43571      6.42425        -0.656782      2.069202      0.206192
O       9.67823      7.47397     10.60292        -0.008675      0.543039     -0.288112
O       9.09678     11.22380      2.40818         0.217487      0.721034     -0.037301
O       9.68529     11.27674     14.58017        -0.737791     -0.929428     -0.173550
O       9.17734     11.22465      6.43902        -0.047359      0.265879     -0.199670
O       9.09312     11.17742     10.52633        -0.326143      1.271045      0.173545
