  # total energy = -7879.23618427 
CRSYTAL
PRIMVEC
    15.6000000000000000    0.0000000000000000    0.0000000000000000
     0.0000000000000000   15.6000000000000000    0.0000000000000000
     0.0000000000000000    0.0000000000000000    17.640000000000000
PRESSURE
-2.80683 -2.9407 0.454735 -0.011572 -0.193207 -0.078312
PRIMCOORD
320 1
Pb       3.86871      3.92286      4.27601        -0.004456      0.014662     -0.157016
Pb       3.77599      3.73835     17.54924         0.537163      0.581530      0.084622
Pb       4.09535      0.09611      4.35055        -0.747020     -0.077422      0.579572
Pb       3.98350     15.48849     17.46896         0.244948      0.404505      0.357625
Pb       0.01513      3.89183      4.30288        -0.259692     -0.155628      0.323267
Pb      15.50044      3.83233     17.59517        -0.167089      0.428483      0.148421
Pb      15.58377     15.55585      4.31810         0.096476      0.382280      0.679028
Pb       0.21456     15.49797     17.50909        -0.855800      0.099879      0.377524
Pb       3.95158      3.80268      8.69977        -0.002420      0.036248      0.600252
Pb       3.86024     15.55785      8.74650        -0.307717      0.253801     -0.156145
Pb       0.01038      3.79363      8.64516        -0.376977      0.310631      1.098755
Pb       0.05075     15.50013      8.96583        -0.183730     -0.250871     -0.570094
Pb       3.71439      4.10595     13.07592         0.354102     -1.089900      0.916177
Pb       3.80356     15.59112     13.16680         0.121936      0.608390     -0.444454
Pb      15.48180      3.82903     13.19138         0.411612     -0.081879     -0.470226
Pb       0.02697      0.00411     13.10115        -0.845776      0.212597      0.512437
Pb       3.81171      7.76468      4.19651        -0.263541      0.042007      0.662117
Pb       3.71289      7.78150     17.55972         0.393926     -0.411931      0.425519
Pb      15.47115      7.74981      4.43532         0.365313      0.360426     -0.455135
Pb      15.45674      7.76153      0.03210         0.023263     -0.354372     -0.054723
Pb       3.87688      7.76764      8.72623        -0.179387     -0.127542      0.161401
Pb       0.06435      7.72430      8.69124        -0.446226      0.461082      0.320646
Pb       3.87857      7.82098     13.16763        -0.533821      0.050267      0.526012
Pb      15.34397      7.83734     13.17843         1.066041     -0.299754      0.165048
Pb       3.88819     11.68366      4.27720         0.040746     -0.564288      1.408846
Pb       3.93587     11.62985     17.56626        -0.277675      0.175138     -0.005446
Pb      15.55016     11.60978      4.40561        -0.038871      0.169511      0.494781
Pb      15.57306     11.58062      0.13443        -0.508730      0.229705     -0.477626
Pb       3.89475     11.68296      8.63724        -0.124512     -0.155140      0.239990
Pb       0.01069     11.61478      8.79440        -0.268434      0.173049     -0.176849
Pb       3.91022     11.66637     13.22391         0.039503     -0.521825     -0.520592
Pb       0.09918     11.60606     13.19619        -0.419081      0.016948     -0.118311
Pb       7.83231      4.08545      4.28329        -0.612409     -0.472610      0.406893
Pb       7.78901      3.80020     17.46609        -0.382528     -0.051511      0.352035
Pb       7.97851      0.01383      4.29294        -0.405403     -0.151709      0.380590
Pb       7.90770     15.42659     17.61063        -0.360843      0.345063     -0.029590
Pb       7.99300      3.89362      8.67569        -0.789875      0.048582      0.645202
Pb       7.74677     15.49779      8.65580         0.274842      0.002863      0.394865
Pb       7.64850      3.87003     12.99147        -0.212696      0.341951      1.319438
Pb       7.68121     15.43454     13.20516         0.645704      0.906445     -0.205477
Pb       7.66701      7.88556      4.29637         0.389701      0.256578      0.596320
Pb       7.82537      7.80465     17.53494         0.128361      0.145103      0.619848
Pb       7.85100      7.78010      8.75514         0.164678     -0.075706     -0.239569
Pb       7.78248      7.67918     13.10835        -0.160521     -0.277987      0.674888
Pb       7.74752     11.78422      4.33565         0.625929     -0.129032     -0.013000
Pb       7.74630     11.74823      0.03942         0.299805     -0.420470     -0.184647
Pb       7.71287     11.65364      8.87581        -0.132528      0.176219     -0.906176
Pb       7.82935     11.52707     13.20708         0.024414      0.206828      0.291355
Pb      11.53812      4.01997      4.34714         0.510002     -0.680353      0.208042
Pb      11.70614      4.01363     17.47257         0.205845     -0.530063      0.784077
Pb      11.77031      0.03131      4.36106        -0.058691      0.497764      0.360374
Pb      11.72429      0.01077     17.51883         0.175098     -0.018584      0.287122
Pb      11.70221      3.91092      8.76689         0.212821     -0.394305      0.005682
Pb      11.62861     15.52528      8.81141         0.026576      0.404904      0.538449
Pb      11.55558      3.92252     13.18505         0.010394     -0.503608      0.235655
Pb      11.73436     15.54585     13.18786         0.055865     -0.176450     -0.212831
Pb      11.63620      7.82142      4.32042        -0.250717      0.450395      0.797739
Pb      11.71023      7.89242     17.58888        -0.118461     -0.206272      0.834287
Pb      11.78402      7.73739      8.76989        -0.094563      0.196771     -0.157525
Pb      11.68165      7.84134     13.18843        -0.428532      0.222896      0.421400
Pb      11.75785     11.91998      4.48420        -0.451813     -0.835140     -0.307225
Pb      11.65957     11.81385      0.02007         0.205772     -0.674409      1.116938
Pb      11.62963     11.71256      8.69447         0.175144     -0.107353      0.585902
Pb      11.81852     11.71632     13.11953        -0.436424     -0.016143      0.653359
Ti       1.94575      1.90046      2.31549         0.351485     -0.285420      1.380122
Ti       1.97082      1.90445     15.58006        -0.407297      0.841766     -2.083351
Ti       1.98155     13.62442      2.53613        -0.607789      0.126897      0.856907
Ti       1.93476     13.59499     15.48969        -0.305971     -0.207169      2.250004
Ti      13.64914      1.99690      2.34652        -0.605645      0.402872     -0.054244
Ti      13.72441      1.85423     15.53381        -0.459566      0.238056     -0.038378
Ti      13.70915     13.67716      2.45789        -0.941154     -0.141397      1.751227
Ti      13.65341     13.57024     15.75170         0.412249     -0.156604      0.295086
Ti       1.87387      1.92296      6.76166         0.875187     -1.284301      0.466158
Ti       1.88210     13.60675      6.80884        -0.478612      0.106825      1.753159
Ti      13.71313      1.83566      6.86501        -1.548620      0.323341      2.117867
Ti      13.57168     13.66776      6.90018         0.938827      0.305488      0.709691
Ti       1.93941      1.92990     11.30039        -0.294015      0.442262     -0.248667
Ti       1.97569     13.59920     11.23271        -0.191813      0.408412     -0.037199
Ti      13.52470      1.93974     11.20628         0.699032     -0.710164      1.620169
Ti      13.74856     13.50633     11.20518        -0.701851      2.102450     -1.310959
Ti       1.76119      5.78243      2.39431         0.469552      1.325525     -0.516229
Ti       1.81398      5.81289     15.68693         0.571728      0.499077      0.313222
Ti      13.47641      5.87043      2.43921         0.928113      0.296479     -0.935866
Ti      13.55062      5.83978     15.53000         0.749274      0.283901      1.065591
Ti       1.92668      5.78288      6.82755         0.344774      0.542176     -0.725311
Ti      13.59837      5.78085      6.72191        -0.021643      0.609598      1.991991
Ti       1.86695      5.91971     11.16113        -0.952436     -0.646722     -1.357612
Ti      13.53439      5.77920     11.33535         1.563059     -0.091546     -0.394328
Ti       1.83826      9.74217      2.42921        -0.085580     -0.425965      1.469727
Ti       1.84896      9.78548     15.68511         0.622037     -0.752241     -0.203719
Ti      13.51255      9.77619      2.56263        -0.016144      0.347789     -1.336617
Ti      13.64378      9.73189     15.60971         0.023242      0.310333      0.113361
Ti       1.91905      9.74535      6.78441        -0.340902     -0.140141      0.080087
Ti      13.53616      9.82978      6.79088         0.558580     -0.877604     -0.354142
Ti       1.90452      9.72702     11.10948        -0.498720     -0.549346     -1.017965
Ti      13.57688      9.70790     11.20582         0.446795     -0.082525     -0.250375
Ti       5.89865      1.92583      2.35351         0.086791      0.804759     -0.020045
Ti       5.94168      1.90373     15.50705        -0.544230      0.324585      0.487500
Ti       5.79656     13.68912      2.45435         1.333077      0.481819     -1.371911
Ti       5.82215     13.64565     15.44240         0.520997     -0.405249      2.422350
Ti       5.85776      1.89862      6.76212        -0.541025      0.217465      0.671459
Ti       5.75832     13.56848      6.71693         0.452203     -0.236745     -0.305230
Ti       5.80713      1.82979     11.16232        -0.261254      0.378111      0.854897
Ti       5.85020     13.55699     11.23634        -0.040809      0.087382      0.850541
Ti       5.76638      5.88139      2.32314         0.916404     -0.321207     -0.037435
Ti       5.85116      5.80518     15.72020        -1.042394     -0.446202     -0.266614
Ti       5.85810      5.82489      6.85595         0.032544     -0.158598     -0.167777
Ti       5.69625      5.84945     11.19357         0.715695     -1.740081     -1.279955
Ti       5.74578      9.75637      2.34489         0.980308     -0.262414     -0.475014
Ti       5.84698      9.66675     15.77202        -0.365209      0.435561     -0.603720
Ti       5.83253      9.65823      6.76819         0.229307      0.619719      0.851865
Ti       5.79777      9.65519     11.22245        -0.348705      0.243697     -0.257875
Ti       9.74593      2.03041      2.31184         0.413016     -1.019944      1.297575
Ti       9.84586      1.90271     15.56277        -0.952517     -0.423597      0.098185
Ti       9.87991     13.74260      2.46765        -1.246773     -1.822524     -0.357060
Ti       9.72895     13.59175     15.63777         0.673844     -0.141619      0.013910
Ti       9.73605      1.91583      6.82567         0.700918     -0.401427      1.375555
Ti       9.70337     13.54381      6.80324        -0.560006      0.971964     -0.562032
Ti       9.66190      1.92993     11.33920         0.043238     -0.954169      0.372076
Ti       9.70373     13.55164     11.33655         0.968922      1.537560      0.268501
Ti       9.64432      5.98495      2.42161         0.724718     -0.211705     -0.266340
Ti       9.74920      5.82031     15.66372        -0.248303      0.879403     -1.274470
Ti       9.80405      5.87715      6.73831        -0.734259      0.567060     -0.298917
Ti       9.76402      5.90291     11.27665        -0.873185     -1.130172     -0.578936
Ti       9.67083      9.81763      2.51912         1.306320      0.606705     -0.683807
Ti       9.88653      9.81099     15.76541        -2.012152     -0.596288     -0.858121
Ti       9.69443      9.76890      6.73138         0.065855     -0.835874      1.045282
Ti       9.61075      9.74100     11.18509         2.036582     -0.170309      2.054755
O       1.91559      1.79622      0.61665        -0.064369     -0.013279     -1.235120
O       1.90880      1.94819     13.70602         0.282065     -0.118221      2.199250
O       1.93662     13.60529      0.83612        -0.003832      0.199523     -1.228262
O       1.83968     13.63309     13.80470         0.551047     -0.353382     -1.342974
O      13.55724      2.01385      0.60640         0.197857     -0.144731      0.368633
O      13.73443      1.84983     13.75550        -0.279640      0.405120      1.382219
O      13.67999     13.67969      0.79042         0.279862      0.218515     -2.581276
O      13.64169     13.48261     14.06831         0.026289     -0.119409     -1.550549
O       1.89543      2.12443      5.06282         0.139629     -0.361559     -1.018351
O       1.91978     13.50112      5.14473        -0.324058      0.219885     -2.406728
O      13.57258      1.87759      5.20063         0.136894     -0.219139     -2.111209
O      13.53201     13.69880      5.14725         0.054834      0.379926     -0.422704
O       2.03697      1.74068      9.56089        -0.462816      0.290716     -0.612962
O       1.93295     13.55733      9.50016         0.023031      0.211530     -0.567728
O      13.53169      2.06465      9.49965         0.198075     -0.143552     -0.760038
O      13.68480     13.56303      9.41185        -0.247278     -0.176270      1.165008
O       1.68869      5.88627      0.65287         0.074697     -0.154122      0.175377
O       1.94741      5.93902     13.95642        -0.140726     -0.313514     -0.005646
O      13.54080      6.05694      0.66464        -0.160734     -0.521497      0.863386
O      13.61230      5.74226     13.79326        -0.113216      0.126544     -0.580935
O       1.88669      5.75295      5.01577         0.338778      0.007058      0.969139
O      13.59332      5.74547      5.04374         0.131785      0.275784     -1.686879
O       1.95822      5.88937      9.36707        -0.240688     -0.106455      0.349960
O      13.49689      5.89913      9.61337        -0.112395     -0.192675     -0.968386
O       1.83942      9.77593      0.73045        -0.037563      0.386238     -1.874622
O       1.85043      9.66291     13.95186         0.180382      0.397211     -0.680297
O      13.58549      9.73286      0.78452         0.175382     -0.028618      0.195495
O      13.71121      9.65631     13.84853        -0.258055      0.562977     -0.333075
O       1.80680      9.72509      5.03408         0.194213     -0.062272      0.165644
O      13.56648      9.86402      5.02526         0.316917     -0.340115     -0.161837
O       1.82990      9.72901      9.31296         0.398965      0.136758      1.336427
O      13.60446      9.68921      9.48164        -0.103071     -0.001652     -0.622175
O       5.83746      1.91531      0.65494         0.140428     -0.497182     -1.210245
O       5.94480      1.84727     13.80028        -0.395299      0.084324     -0.749049
O       5.82021     13.98675      0.64481        -0.070991     -0.906290      1.738947
O       6.00547     13.55936     13.72662        -0.701233     -0.419550     -0.596620
O       5.83028      1.88544      5.03881         0.003651      0.167288     -1.045658
O       5.79904     13.61422      4.94999         0.134164      0.084168      0.168895
O       5.82727      1.80374      9.43418        -0.067023      0.088002     -0.373726
O       5.89243     13.49220      9.53873         0.148527      0.106464     -1.483054
O       5.86479      5.90324      0.62318         0.006553     -0.020090     -1.083599
O       5.82604      5.74038     13.98571        -0.319587      0.623545     -0.107851
O       5.84345      5.85727      5.10771        -0.048226     -0.213029     -0.107979
O       5.62469      5.68885      9.44020         0.312092      0.626217      0.008071
O       5.76796      9.71695      0.59490        -0.085766      0.410526     -0.203737
O       5.61894      9.66769     14.01714         0.388257      0.475845     -0.646267
O       6.01215      9.79046      5.08832        -0.407582     -0.491275     -1.883164
O       5.86817      9.60071      9.50645         0.073243      0.247786     -0.246045
O       9.77308      1.88758      0.61856         0.094141      0.184981     -1.454904
O       9.63766      1.88662     13.86029         0.532878      0.144332     -0.194241
O       9.83589     13.51166      0.72259        -0.182681      0.701656     -0.618305
O       9.83889     13.53448     13.91149        -0.371337     -0.207509     -0.356839
O       9.72678      1.77973      5.15471         0.143721      0.287042     -1.671487
O       9.66305     13.61705      5.04001         0.376647      0.077803      0.016444
O       9.61666      1.94804      9.63765         0.130358      0.287533     -1.850232
O       9.76667     13.62563      9.62677        -0.172532     -0.521959     -1.162000
O       9.61146      5.98542      0.68240         0.186764     -0.513710     -0.585044
O       9.81863      5.83403     13.87961        -0.296994      0.264092      0.874400
O       9.77530      5.87175      4.96850        -0.273813     -0.275617      0.222752
O       9.89240      5.86157      9.53673        -0.264473     -0.056138     -0.157745
O       9.76264      9.82891      0.76276        -0.070522     -0.080294     -0.710019
O       9.82198      9.72655     14.02199        -0.078796      0.155452     -0.348185
O       9.66409      9.75712      5.03803        -0.036029     -0.121463     -1.122466
O       9.68939      9.68802      9.52086        -0.191696      0.209247     -2.019270
O       3.86952      1.94325      2.61355         0.498692      0.065417      1.061455
O       3.80989      1.94296     16.00739         0.350448     -0.270397     -0.260911
O       3.93385     13.54844      2.94134        -0.051974      0.760205     -0.776378
O       3.93710     13.64535     16.02767        -0.624054      0.262939     -0.877156
O       0.09048      2.00530      2.72355        -1.235889     -0.120407      0.248838
O      15.57838      2.05159     16.08958        -0.115150     -0.835910     -0.523116
O      15.51983     13.63065      2.98696         1.243167      0.110930     -0.281635
O       0.04413     13.54034     16.08513         0.603493      0.398472      0.155424
O       3.91232      1.82889      7.09848        -0.445609     -0.021221      0.401828
O       3.82401     13.58082      7.08987         0.963851     -0.263567      0.580275
O      15.55134      1.77841      7.22813         1.223022      0.637880      0.230750
O      15.45524     13.63029      7.34971         1.205466     -0.227084     -0.375491
O       3.86067      1.79899     11.57740         0.709271      0.140936      0.459462
O       3.90263     13.64248     11.56267         0.347171     -0.167924      0.720121
O      15.51600      1.93368     11.71502         0.301134     -0.057918     -0.692954
O       0.07392     13.69725     11.63399        -1.033697     -0.850781     -0.100922
O       3.90997      5.91948      2.79645        -0.470799     -0.354560     -0.189806
O       3.76023      5.73433     16.21283         0.341478      0.417476     -0.421012
O      15.52085      5.84118      2.88226        -0.082473      0.233104     -0.034622
O      15.37105      5.90803     16.10883         1.636679     -0.373848     -0.207215
O       3.85214      5.77393      7.29910        -0.032827     -0.115228     -0.679911
O       0.03600      5.84177      7.22451        -0.478801     -0.118029     -0.346868
O       3.73865      5.87711     11.61753         1.098764      0.531327      0.262582
O       0.00692      5.73308     11.60184        -0.711773      0.560253      0.294548
O       3.86511      9.66757      2.81278         0.170814      0.537946     -0.222319
O       3.76589      9.69775     16.13143         0.624260      0.386651      0.276629
O      15.57186      9.69556      2.83203        -0.810498      0.593072      0.446080
O      15.51986      9.87825     16.00672         0.787761     -0.336748      0.566117
O       3.93193      9.78878      7.17214        -0.917797     -0.492396     -0.063811
O      15.52135      9.70862      7.28059         0.274770      0.167302     -0.571799
O       3.81018      9.65599     11.53058         0.654756      0.371077      0.467133
O      15.53777      9.76333     11.58087         0.881828     -0.207144      0.362258
O       7.82560      1.81198      2.65664         0.239222      0.306671      0.402960
O       7.76533      1.86979     15.97457         1.099575      0.275751      0.422502
O       7.92424     13.71067      2.73364        -1.709878     -0.166478      0.355962
O       7.81752     13.56663     16.06921        -0.470247      0.234577     -0.270952
O       7.76238      1.94472      7.21158         0.685756     -0.561783      0.124943
O       7.77324     13.51690      7.22003        -0.398779      0.158938      0.228279
O       7.72097      1.95813     11.68983        -0.659301     -0.282882     -0.429221
O       7.83399     13.46497     11.69938        -0.685776      0.133542      0.034186
O       7.84629      5.96361      2.93932        -1.284290     -0.508001     -0.397398
O       7.77586      5.79768     16.06221         0.267075      0.081123     -0.068276
O       7.82762      5.88741      7.24618        -0.494357     -0.423944     -0.048961
O       7.72031      5.81688     11.58437         0.175518      0.378795     -0.041383
O       7.85156      9.81649      2.78212        -1.921451     -0.319879      0.299764
O       7.75212      9.86329     16.09496        -0.222610     -0.380188      0.038614
O       7.80377      9.59904      7.20273        -0.082060      0.503698      0.565339
O       7.78803      9.66840     11.62831        -0.933533      0.176584      0.253402
O      11.73614      2.10881      2.82742        -0.364623     -0.622047     -0.141398
O      11.74595      1.84109     16.00279        -0.359620      0.618003     -0.372780
O      11.70905     13.64056      2.83712         0.849219      0.597882      0.493288
O      11.74110     13.56176     16.16837        -0.383255      0.676070     -0.351179
O      11.64590      1.94588      7.36046        -0.220418     -0.170833     -0.310554
O      11.60446     13.70498      7.30304         0.929380     -1.078037     -0.153642
O      11.61861      1.83192     11.69469         0.318134      0.768583     -0.024690
O      11.77576     13.62957     11.81999        -0.285495     -0.487656     -0.680311
O      11.59489      5.91365      2.91322         0.529756     -0.836053     -0.567841
O      11.68826      6.05253     16.02202        -0.466964     -1.090667      0.067993
O      11.64944      5.81599      7.16091         1.311086     -0.268734      0.181255
O      11.66138      5.74211     11.73352        -0.644318      0.456081     -0.000703
O      11.66582      9.74076      2.95600         0.301784      0.088750     -0.030846
O      11.69533      9.76212     16.12808         1.017971      0.044512     -0.257584
O      11.61123      9.82367      7.16786         0.570658     -0.252480      0.260082
O      11.75217      9.66396     11.55777        -1.300360      0.199758      0.481157
O       1.96558      3.93921      2.71860         0.101288     -0.748726      0.217041
O       1.82877      3.85295     16.15144         0.042225      0.074430     -0.510469
O       1.94343     15.52188      2.96120         0.095060      0.557013     -0.518159
O       1.91964      0.01310     15.91570        -0.083459     -0.797293      0.083954
O      13.63341      3.98746      2.82981        -0.060892     -0.637860     -0.225675
O      13.56265      3.97866     16.14617        -0.087819     -0.678884     -0.933047
O      13.65364      0.10876      2.89431         0.046707     -0.218259     -0.345600
O      13.66352      0.02120     16.00377         0.339897     -0.455281      0.236132
O       1.86853      3.74592      7.21464         0.250532      1.338550      0.102402
O       1.88008     15.48282      7.23080         0.161276      0.881998      0.089857
O      13.71216      3.88201      7.17117        -0.235100      0.224673      0.337553
O      13.69774     15.57936      7.50031        -0.890359     -0.128561     -0.787838
O       1.93510      3.90283     11.56957         0.035018     -0.282041      0.049292
O       1.85448     15.58614     11.70989         0.863457     -0.563209     -0.196164
O      13.64348      3.84315     11.65140        -0.696257      0.055774      0.198495
O      13.60469     15.49403     11.67753         0.342978      0.370059     -0.352551
O       1.82099      7.83383      2.72891         0.523292     -0.779316      0.758284
O       1.92268      7.77251     16.14563        -0.968485      0.173396     -0.267385
O      13.54323      7.80154      2.84145         0.467722     -0.218548      0.680048
O      13.66564      7.83721     15.85681        -0.273710      0.366735      0.574695
O       1.99888      7.81325      7.19373        -0.254964     -0.690434     -0.235988
O      13.54857      7.81102      7.14739         0.213053     -0.589528     -0.012506
O       1.87395      7.80662     11.45324        -0.102919      0.808259      0.438218
O      13.53228      7.71319     11.73670         0.518009      0.454639     -0.250940
O       1.88066     11.70448      3.04882         0.206087     -0.227624     -1.044416
O       2.06608     11.72122     16.00646        -0.436754      0.043895     -0.138575
O      13.54206     11.78844      2.78452         0.510139     -0.975358      0.581240
O      13.67546     11.65982     16.23696        -0.234120      0.057824     -0.276090
O       1.92548     11.65088      7.26686        -0.277084     -0.108745     -0.061880
O      13.62053     11.71823      7.12246        -0.447084     -0.262192      0.593674
O       1.97521     11.72205     11.66513        -0.079001     -1.229907      0.184838
O      13.70987     11.68372     11.55547        -0.184842     -0.731526      0.545622
O       5.98268      3.96172      2.54239        -0.264774     -0.559627      1.217807
O       5.77313      3.82199     15.99628         0.377714      0.185746      0.539718
O       5.89036      0.01957      2.90164        -0.489063     -0.696075     -0.256079
O       5.87776     15.56170     15.78912        -0.360178     -0.620877      0.581012
O       5.83147      3.80166      7.24506         0.129884      0.522571     -0.317848
O       5.78400     15.43264      7.21649         0.463187      0.654708     -0.178815
O       5.67107      3.96469     11.64892         0.169954     -0.894756     -0.254696
O       5.84011     15.52270     11.61172         0.356343     -0.171177      0.027326
O       5.95466      7.84681      2.67226        -0.554660      0.028314      0.659486
O       5.76650      7.79015     15.99015         0.201673     -0.467623      0.484689
O       5.81553      7.75765      7.21981        -0.142603     -0.582247      0.135555
O       5.81832      7.67608     11.63912        -0.183785      1.624099      0.360294
O       5.87060     11.65850      2.76426        -0.208525      0.852174     -0.333212
O       5.75077     11.77044     16.15177         0.298102     -0.244633     -0.586463
O       5.81284     11.59760      7.11062         0.401040      0.970090      0.832895
O       5.88863     11.58597     11.54346        -0.512924     -0.287872      0.749584
O       9.63748      3.84938      2.83995         0.299625      0.819056     -0.284590
O       9.82937      3.86786     15.96197        -0.073862      0.118018      0.213497
O       9.84407     15.59907      2.85605         0.202761      1.010058     -0.281423
O       9.78624     15.49483     15.95704        -0.048747      0.681589      0.502446
O       9.75549      3.94260      7.11834        -0.222571     -0.889116      0.279263
O       9.82758     15.42459      7.25986        -1.256054      1.685627      0.088125
O       9.61685      3.92297     11.72001         0.959827     -0.100100     -0.245252
O       9.65551     15.56673     11.62714         0.014455     -0.530840      0.669179
O       9.78827      7.80141      2.78130        -0.302852      0.740617      0.427954
O       9.73589      7.77290     16.15331        -0.299531      0.353007     -0.329451
O       9.79181      7.73549      7.20299        -0.071529      0.650973      0.144955
O       9.63443      7.78924     11.64316         0.746834      0.090738      0.182351
O       9.80163     11.68095      2.98803        -0.032801      0.758727     -0.141074
O       9.77214     11.68635     16.17032        -0.133027      0.231505     -0.124897
O       9.73078     11.67604      7.21348        -0.192066     -0.389722      0.345867
O       9.82809     11.63810     11.68359        -0.465885     -0.731596      0.020123
