  # total energy = -7880.57730892 
CRSYTAL
PRIMVEC
    15.6000000000000000    0.0000000000000000    0.0000000000000000
     0.0000000000000000   15.6000000000000000    0.0000000000000000
     0.0000000000000000    0.0000000000000000    17.640000000000000
PRESSURE
-5.9945 -6.20913 -8.30226 -0.006 -0.120178 0.006251
PRIMCOORD
320 1
Pb       3.81331      3.79406      4.38704         0.301347      0.888021     -0.042037
Pb       3.88057      3.90083     17.59690         0.044446     -0.069588     -0.030574
Pb       3.87939     15.57235      4.33681         0.061501     -0.216610      0.400500
Pb       3.84626     15.55770     17.56135        -0.095665      0.232380     -0.041509
Pb       0.02373      3.87278      4.40146        -0.029572      0.320515     -0.595833
Pb      15.58907      3.91466     17.62688        -0.023359      0.218305     -0.043831
Pb      15.55440     15.55555      4.33707         0.188956     -0.099241     -0.054222
Pb      15.51474      0.02208     17.56333         0.644160     -0.485428      0.428737
Pb       3.85252      3.91736      8.79465        -0.085927      0.069152     -0.486680
Pb       3.84488      0.02373      8.74458         0.324003     -0.077458     -0.083459
Pb      15.57359      3.89813      8.72448         0.205910      0.152351      0.034107
Pb       0.00881     15.59669      8.76883        -0.680044     -0.407075     -0.136046
Pb       3.89625      3.73900     13.22210         0.144602      0.514665     -0.254359
Pb       3.83654     15.55519     13.18638         0.325145     -0.328599      0.130271
Pb      15.57569      3.80768     13.17780         0.275830      0.359294     -0.023261
Pb      15.58548      0.06983     13.16073        -0.048219     -0.507022      0.021556
Pb       3.88310      7.81948      4.40159        -0.032599     -0.683270     -0.210716
Pb       3.93758      7.80411     17.59029        -0.528693     -0.075997      0.199675
Pb       0.00094      7.91734      4.40145         0.186692     -1.084468      0.004661
Pb       0.01332      7.82742     17.56592         0.088134     -0.182871      0.215404
Pb       3.89450      7.85680      8.82376         0.006959     -0.350540     -0.399684
Pb      15.57679      7.79621      8.81670        -0.161689     -0.027818     -0.278932
Pb       3.89052      7.79748     13.15026         0.180385     -0.216569      0.054910
Pb       0.02629      7.85265     13.18600         0.082746     -0.241554     -0.274091
Pb       3.89186     11.65145      4.37758         0.131302      0.026835     -0.327942
Pb       3.91480     11.64485     17.58320        -0.162431      0.539057     -0.287349
Pb      15.52462     11.56867      4.29935         0.608339      0.903124      0.537808
Pb      15.56282     11.64158     17.53831         0.318631      0.435055      0.353723
Pb       3.85049     11.60929      8.75065         0.299548      0.184442      0.136351
Pb      15.55179     11.71816      8.81550        -0.221901      0.303344     -0.897117
Pb       3.86967     11.71757     13.17757        -0.305362      0.176859     -0.107882
Pb      15.53972     11.63849     13.18548         0.341295      0.305986     -0.401732
Pb       7.83550      3.76414      4.43796        -0.281708      0.681600     -0.030092
Pb       7.78976      3.84630     17.57461        -0.285705      0.319911      0.163687
Pb       7.74234     15.52309      4.33614        -0.069051     -0.022853      0.013057
Pb       7.77393     15.57215     17.63279        -0.060806      0.278842     -0.222581
Pb       7.74563      3.89261      8.76016        -0.180214      0.040203     -0.250288
Pb       7.80376     15.58392      8.71904        -0.027313      0.035904      0.494683
Pb       7.92964      3.91968     13.12919        -0.815225     -0.043597      0.243311
Pb       7.78895      0.02131     13.22888        -0.103551     -0.592587     -0.277306
Pb       7.87306      7.78370      4.37510        -0.291795     -0.437769      0.010312
Pb       7.79479      7.86567     17.62143         0.324910     -0.497448      0.214758
Pb       7.76623      7.80756      8.76000         0.078367     -0.126379     -0.016961
Pb       7.78108      7.87340     13.10305        -0.123164     -0.201838      0.981511
Pb       7.82705     11.69989      4.39220        -0.187832      0.017815     -0.322888
Pb       7.78479     11.69218      0.00950        -0.213982      0.140525     -0.277951
Pb       7.81937     11.69211      8.88218        -0.232063      0.005918     -0.274913
Pb       7.78976     11.72367     13.19421        -0.027118      0.029755      0.203463
Pb      11.66032      3.88218      4.41986        -0.052361     -0.010877     -0.319461
Pb      11.80445      3.85208     17.59746        -0.595591      0.127817     -0.033736
Pb      11.58597     15.49765      4.40461         0.341416     -0.000157     -0.414685
Pb      11.57731     15.52766     17.61126        -0.215168      0.068822     -0.133327
Pb      11.59685      3.89158      8.77365         0.393790      0.129979      0.039131
Pb      11.75433      0.03584      8.73276        -0.069214     -0.386814      0.180025
Pb      11.74825      3.89623     13.20661        -0.130608     -0.186933     -0.410839
Pb      11.68901     15.57911     13.17585        -0.244064     -0.191098     -0.009178
Pb      11.73396      7.74957      4.30461        -0.362069     -0.458615      0.561995
Pb      11.72571      7.74924     17.54878        -0.804388      0.132015      0.205395
Pb      11.62152      7.78623      8.72088         0.082887      0.055738      0.425258
Pb      11.72787      7.75565     13.21117        -0.384033      0.174814     -0.412782
Pb      11.70043     11.66885      4.28162        -0.611744      0.137321      0.739621
Pb      11.76894     11.60090     17.49784        -0.537560      0.312729      0.648671
Pb      11.70914     11.62176      8.66094         0.058260      0.738154      0.631222
Pb      11.64303     11.63499     13.07860        -0.234215      0.220573      0.332497
Ti       1.96098      1.95906      2.36461        -0.302453     -0.088514     -1.022432
Ti       1.85601      2.00439     15.60731         0.376687     -0.256475     -0.417703
Ti       1.92593     13.69960      2.33823        -0.272910     -0.871974     -1.239450
Ti       1.91521     13.67861     15.59329         0.694439     -0.647035     -0.861637
Ti      13.65642      1.92826      2.32591        -0.041402     -0.033630      0.145840
Ti      13.56736      1.88344     15.68727        -0.129182      0.202069     -1.233745
Ti      13.64455     13.55694      2.32683         0.030404      0.269138      0.279127
Ti      13.62241     13.62265     15.55925         0.142957     -0.059749      0.190776
Ti       1.84852      1.91684      6.79212         0.493035      0.502820     -1.550185
Ti       1.99246     13.66414      6.82384        -1.105502     -0.097457     -1.462893
Ti      13.62638      1.92619      6.73195         0.272657     -0.176855     -0.681340
Ti      13.63856     13.64584      6.67064         0.029929     -0.203986      0.545407
Ti       1.97076      1.90715     11.10939         0.113144      0.478562     -0.013786
Ti       1.88662     13.65520     11.07535         0.128648     -0.794903      0.880409
Ti      13.60905      1.87757     11.19708        -0.473205      0.345677     -1.653664
Ti      13.61441     13.63584     11.16907        -0.074944     -0.088162     -1.166623
Ti       1.88719      5.94261      2.22869         0.170485     -1.269259     -0.045413
Ti       1.87461      5.85852     15.59355         0.417461     -0.471137     -0.559609
Ti      13.55933      5.78023      2.25568         1.269138      0.003264     -0.239017
Ti      13.56251      5.83877     15.55481         0.296181     -0.243574      0.640117
Ti       1.89083      5.94574      6.77449         0.589017     -0.529532     -0.489770
Ti      13.60939      5.84481      6.88429         0.001732      0.056100     -2.102143
Ti       1.97251      5.77071     11.17014         0.055560      0.357208     -0.930432
Ti      13.68781      5.84879     11.22614        -0.433214      0.246747     -0.512085
Ti       1.92526      9.77249      2.36586         0.536415     -0.134048     -1.324148
Ti       1.88327      9.74022     15.56349         0.625131      0.729753     -0.555662
Ti      13.55269      9.65455      2.44397         0.911300      0.352710     -1.192387
Ti      13.60188      9.71724     15.56999        -0.305506      0.099148     -0.470123
Ti       1.95846      9.75013      6.79490        -0.299309     -0.216327     -0.612283
Ti      13.62154      9.70295      6.75037        -0.077880      0.251635      0.692714
Ti       1.91518      9.67822     11.11002         0.492360      0.543080     -0.036977
Ti      13.60747      9.72992     11.17671        -0.060662     -0.284757     -0.611378
Ti       5.83240      1.95857      2.41401         0.299200      0.045901     -1.424600
Ti       5.78691      1.96823     15.49229        -0.118798     -0.081523     -0.042184
Ti       5.80659     13.60151      2.36811         0.778248     -0.274775     -0.995029
Ti       5.88893     13.69353     15.63350        -1.025848     -0.350348     -1.749201
Ti       5.80480      1.88704      6.80719         0.025025      0.285582     -0.780326
Ti       5.85761     13.60918      6.80224        -0.349955      0.162524     -0.601282
Ti       5.90443      1.92675     11.16572        -0.563979      0.266455     -0.676388
Ti       5.76251     13.66216     11.14939         0.523038     -0.024210     -0.629647
Ti       5.82804      5.79215      2.34602        -0.462929     -0.223012      0.503131
Ti       5.80520      5.86129     15.65906         0.191724     -0.054621     -0.826032
Ti       5.72316      5.84066      6.79072        -0.065426     -0.532158     -2.059502
Ti       5.83637      5.87013     11.12041        -0.071949     -0.141036      0.669722
Ti       5.87017      9.68018      2.36866        -0.434410      0.627179     -0.399336
Ti       5.78256      9.71832     15.60179         0.902957      0.333651     -0.844624
Ti       5.90940      9.74412      6.77532        -0.963506      0.178105     -0.760609
Ti       5.80543      9.75594     11.21729         0.082226      0.035196     -1.291701
Ti       9.76243      1.95546      2.41620        -0.280459     -0.254267     -1.041233
Ti       9.66868      1.94037     15.55640         0.305821     -0.436159     -1.478850
Ti       9.77159     13.62909      2.29486        -0.483805     -0.145505     -0.999391
Ti       9.74187     13.64963     15.59560        -0.174803     -0.372708     -0.403345
Ti       9.72184      1.94087      6.82484        -0.089835      0.300961     -1.125973
Ti       9.69889     13.62553      6.79442         1.092242     -0.096321     -0.300349
Ti       9.75137      1.87841     11.17362         0.035892     -0.467019     -0.670110
Ti       9.69648     13.59859     11.11219         0.593048      0.051334     -0.108298
Ti       9.67606      5.83350      2.34895        -0.230199     -0.481401     -0.805217
Ti       9.64114      5.79918     15.51508        -0.157557      0.353381      2.141801
Ti       9.64312      5.90424      6.79276         0.230557     -0.135031     -0.981624
Ti       9.68545      5.84742     11.15065         0.364843      0.633888     -0.807787
Ti       9.69550      9.73749      2.38669         0.281236     -0.263902     -1.069197
Ti       9.65614      9.73696     15.64208         0.241412      0.004006     -1.708743
Ti       9.73308      9.78580      6.77629         0.325953     -0.324260     -1.618172
Ti       9.70953      9.69175     11.20927         0.022405     -0.160981     -0.719914
O       1.96978      1.86629      0.52368        -0.000431      0.322812      1.888374
O       1.74088      2.08230     13.76819         0.288795     -0.377649      1.330785
O       1.82924     13.64889      0.50550         0.335793      0.219452      1.860322
O       2.11931     13.61577     13.75524        -0.614294      0.121409      1.731670
O      13.61210      2.11187      0.51287        -0.169696     -0.619732      1.695663
O      13.52394      1.82091     13.83640         0.301557      0.201420      1.621649
O      13.65877     13.34591      0.57466         0.027105      0.632267      0.774677
O      13.63899     13.66990     13.80891        -0.087676     -0.160832      0.584608
O       1.82166      1.91112      4.95778         0.127971     -0.184739      1.406120
O       1.91988     13.64739      5.01526         0.320692     -0.033500      1.277833
O      13.75800      1.90421      4.88940        -0.344109      0.130194      2.028108
O      13.62714     13.72037      4.88677        -0.046832     -0.188114      1.128658
O       1.94089      1.93758      9.32269         0.016475     -0.191399      1.206785
O       1.87125     13.74414      9.29387        -0.035216     -0.180834      1.319241
O      13.47058      1.93595      9.35902         0.395158     -0.163941      2.077567
O      13.73537     13.68922      9.36064        -0.247765     -0.280163      1.655355
O       1.88298      5.86945      0.39876        -0.004311      0.118203      1.420678
O       1.93378      5.69724     13.79320        -0.053664      0.461715      1.337975
O      13.60153      5.71321      0.42274        -0.234299      0.101739      1.619517
O      13.46863      5.93434     13.78475         0.424956     -0.447809      1.083666
O       1.93377      6.08535      4.98053        -0.195470     -0.533632      1.432025
O      13.69883      5.85632      5.06700        -0.358377     -0.276747      1.440820
O       1.94517      5.82532      9.33806        -0.168657      0.080395      1.832902
O      13.67429      5.96267      9.43677         0.119164     -0.408129      1.063198
O       1.89644      9.68387      0.51049        -0.017232      0.209467      2.007362
O       1.89139      9.80240     13.73993        -0.172178     -0.208124      1.784295
O      13.67408      9.82485      0.67379        -0.308110     -0.337640      0.691818
O      13.57721      9.71910     13.77599         0.280893      0.028974      1.268189
O       1.84407      9.59412      4.96084         0.470291      0.459931      1.445373
O      13.50287      9.71020      4.99649         0.539268     -0.260824      0.132932
O       2.03214      9.49215      9.30530        -0.447647      0.905743      1.506253
O      13.62486      9.60832      9.38663         0.052962      0.339782      1.128274
O       5.81088      1.98576      0.57036         0.031184     -0.012770      2.127339
O       5.70990      1.99372     13.66432         0.378545     -0.077215      1.842718
O       5.99507     13.52052      0.53894        -0.524122      0.414545      1.676456
O       5.87601     13.70905     13.74299        -0.271249     -0.006207      1.986857
O       5.83999      1.73715      4.99447        -0.107009      0.481914      1.581293
O       5.90264     13.67312      4.97765        -0.141995     -0.217173      1.355738
O       5.88814      1.99230      9.31836         0.015383     -0.280325      1.914119
O       5.86861     13.62854      9.30805        -0.190173     -0.015128      2.401404
O       5.85918      5.68567      0.57006        -0.096784      0.378093      0.973519
O       5.79911      5.88904     13.87499        -0.075873     -0.016950      1.251468
O       5.61845      5.68007      4.97215         0.223506      0.656235      1.735832
O       5.86104      5.93816      9.36147         0.021989     -0.217350      0.534519
O       5.89680      9.82696      0.55799        -0.195134     -0.221748      1.609693
O       5.93500      9.59944     13.79723        -0.633746      0.478518      1.677606
O       5.83629      9.91259      4.98012         0.098508     -0.548920      1.480903
O       5.89536      9.75054      9.34391        -0.303454     -0.037671      1.774776
O       9.65993      1.80846      0.59838         0.117873      0.489299      1.759582
O       9.78690      1.90712     13.67465        -0.366267      0.111525      2.050676
O       9.75124     13.67163      0.44849        -0.251525      0.162095      1.833290
O       9.76157     13.57230     13.79586        -0.176510      0.329616      1.394678
O       9.82935      2.15976      5.00496        -0.159522     -0.757204      1.572709
O       9.85164     13.64000      5.01318        -0.472706     -0.126491      1.024463
O       9.72978      1.83078      9.32998         0.047040      0.531138      1.622966
O       9.71966     13.41820      9.31524        -0.328059      0.668327      1.248559
O       9.60489      5.67525      0.55916         0.299484      0.412687      1.425848
O       9.55884      5.74961     13.79827         0.434834      0.139897     -0.223397
O       9.72068      5.86279      4.98237         0.087111     -0.056773      1.470281
O       9.56119      5.94817      9.33987         0.326141     -0.207858      1.196772
O       9.73525      9.65980      0.56810        -0.169139      0.341325      1.806984
O       9.67406      9.77357     13.77413         0.182754     -0.009414      1.986682
O       9.83102      9.83443      4.92488        -0.430283     -0.257500      1.879845
O       9.67669      9.61695      9.37981        -0.064410      0.349866      1.668043
O       3.92360      1.88002      2.93211        -0.070730      0.000364     -0.849690
O       3.79680      2.09404     15.97594         0.311328     -0.395640     -0.576918
O       3.94420     13.64675      2.70392        -0.257345     -0.014536     -0.022352
O       3.89332     13.64673     16.19854        -0.071689     -0.165239     -0.700956
O       0.06763      1.83488      2.72046        -0.969210      0.326768     -0.282094
O      15.48678      1.90749     16.22212         0.347084      0.094807     -1.252821
O       0.04639     13.51573      2.83939        -0.680092      0.095570     -0.522755
O      15.58651     13.57791     15.97421        -0.418515      0.384600     -0.343194
O       3.79466      1.80748      7.18663         0.721996      0.371930     -0.259551
O       3.85323     13.79670      7.17689         0.617141     -0.242463     -0.037642
O      15.54252      1.94405      7.23262        -0.616288     -0.014770     -0.184516
O      15.55098     13.62971      7.23753        -0.432695     -0.185848     -0.343262
O       3.87892      1.90919     11.69616        -0.569713      0.229051     -1.032134
O       3.86689     13.61229     11.59437         0.119986      0.158614     -0.659164
O      15.51186      1.85309     11.57342         0.791236      0.435130     -0.235009
O      15.54709     13.57396     11.67646         0.844088      0.338860     -0.577647
O       3.83429      5.75966      2.71161         0.317271      0.318200     -0.334387
O       3.85256      5.85104     16.10349         0.026753      0.082397     -0.445338
O      15.57627      5.70559      2.57908        -0.142939      0.368528      0.126917
O      15.56340      5.81878     15.97062        -0.781921      0.244809     -0.408876
O       3.83622      5.79722      7.32601        -0.386003      0.036183     -0.403578
O      15.57501      5.88718      7.23731         0.233987     -0.002597      0.027436
O       3.88705      5.91603     11.54416         0.097052     -0.033080     -0.133776
O       0.01686      5.77325     11.66446        -0.314599      0.370188     -0.285186
O       3.88594      9.64366      2.83652        -0.074920      0.285385     -0.428608
O       3.86360      9.72510     16.03269        -0.010013      0.087745     -0.446161
O       0.02023      9.70973      2.87768        -0.357370      0.154291     -0.600022
O      15.54384      9.72297     16.05508         0.106232     -0.078705     -0.778185
O       3.87723      9.81921      7.20011         0.021173     -0.248020     -0.276279
O      15.58597      9.77326      7.21911        -0.168619     -0.289891     -0.316296
O       3.90191      9.72643     11.63143        -0.467730     -0.134835     -0.457069
O      15.59424      9.81383     11.58936        -0.122815     -0.633778     -0.257212
O       7.82284      1.97604      2.90443        -0.065721     -0.406459     -0.499528
O       7.70711      1.85512     15.90229         0.119382      0.018817     -0.211606
O       7.86797     13.54862      2.83621        -0.244715      0.214318     -0.341737
O       7.71139     13.77590     16.03541         0.922031     -0.150063     -0.320157
O       7.79632      1.95616      7.11560        -0.109928      0.192103      0.149412
O       7.75895     13.55996      7.22166         0.389625      0.012805     -0.378125
O       7.76567      1.84341     11.68417         0.129260      0.484408     -0.760098
O       7.82619     13.62877     11.68935        -0.566407      0.098369     -0.925922
O       7.81406      5.78154      2.82142        -0.611316      0.331952     -0.098146
O       7.73262      5.96729     16.08485         0.681783     -0.414233     -0.565623
O       7.68493      5.94202      7.07209         0.622146     -0.466284      0.307071
O       7.80045      6.00035     11.58487        -0.782911     -0.919029     -0.321494
O       7.79258      9.71129      2.88529        -0.115271      0.367765     -0.587424
O       7.77193      9.61888     16.10546         0.043201      0.841606     -0.557237
O       7.79480      9.78311      7.16430        -0.581967     -0.100517     -0.249882
O       7.81809      9.76365     11.68703        -0.320136      0.067991     -0.865926
O      11.69054      1.95419      2.83943         0.247637     -0.123336     -0.487186
O      11.56844      1.88941     16.12108         0.756343      0.205760     -0.490635
O      11.64842     13.60479      2.71580         0.666737      0.081003     -0.018920
O      11.63576     13.68699     15.98234         0.659637     -0.359027     -0.150797
O      11.68822      1.86445      7.15685        -0.137318      0.590988     -0.188120
O      11.67469     13.63854      7.15485         0.023420     -0.059224     -0.097611
O      11.65927      1.85025     11.63348        -0.033203      0.683436     -0.372824
O      11.69134     13.65663     11.53964        -0.212970     -0.264375     -0.064670
O      11.66834      5.90759      2.64636         0.177300     -0.525842      0.110257
O      11.62615      5.75723     15.99480         0.106775      0.173228     -0.446400
O      11.64521      5.89870      7.25851        -0.079281     -0.442781     -0.203710
O      11.66019      5.87728     11.56740         0.098317     -0.334277      0.037072
O      11.72871      9.58436      2.84093        -0.956562      0.754413     -0.588746
O      11.63347      9.74562     16.09635         0.898399      0.081665     -0.625403
O      11.63502      9.78031      7.27022         0.550463     -0.809739     -0.627804
O      11.68538      9.66973     11.66951        -0.170686      0.179904     -0.530572
O       1.96025      3.83909      2.84923        -0.115301     -0.243815     -0.614613
O       1.80563      3.84563     16.03985         0.127014      0.620264     -0.224862
O       1.97628     15.51228      2.82718        -0.035135      0.622560     -0.376428
O       1.93820     15.59651     15.97462        -0.222670      0.374023     -0.177764
O      13.65814      3.85490      2.86554        -0.288573      0.005719     -0.726950
O      13.56472      3.81265     16.00608         0.130614      0.735081     -0.661133
O      13.65782     15.49744      2.69129        -0.044796      0.593890     -0.444234
O      13.64478     15.54201     16.11213        -0.384589     -0.011104     -0.385638
O       1.84094      3.87987      7.08299         0.186031      0.038654      0.224291
O       1.78491     15.59181      7.23346         0.397110      0.102510     -0.206804
O      13.62492      3.89892      7.33945        -0.286295     -0.382205     -0.721917
O      13.59317     15.58819      7.23570         0.359689      0.220454     -0.772359
O       1.97693      3.88871     11.47791        -0.239580     -0.799454      0.093447
O       1.97720     15.58672     11.67472        -0.559529     -0.009793     -0.939798
O      13.61621      3.87074     11.75205        -0.176207     -0.118376     -0.733533
O      13.61484     15.55072     11.61967         0.120735      0.405057     -0.167115
O       1.88730      7.72243      2.77096        -0.029134      0.891494     -0.419196
O       1.87968      7.81630     16.02101         0.079010     -0.056415     -0.662227
O      13.60096      7.72006      2.79918         0.645710     -0.032557     -0.477043
O      13.55385      7.82760     16.10510         0.325981     -0.684005     -0.868283
O       2.03666      7.83120      7.25846        -0.522101     -0.108579     -0.502632
O      13.61782      7.75756      7.22100         0.013614      0.945842     -0.152010
O       1.92112      7.80822     11.70604        -0.294308     -0.112953     -0.624956
O      13.65290      7.78552     11.74899         0.302283     -0.084054     -0.559712
O       2.04863     11.66320      2.76273        -0.333706     -0.425595     -0.119098
O       1.95857     11.73821     15.95485        -0.120634     -1.092074     -0.009553
O      13.56570     11.63388      2.93414         0.540685     -0.028419     -0.742246
O      13.65698     11.64317     16.03743        -0.346159      0.109817     -0.721306
O       1.96320     11.71628      7.25467        -0.149273     -0.316059     -0.159349
O      13.57981     11.65850      7.12775         0.315693      0.155233     -0.097071
O       1.95969     11.65492     11.44795        -0.103875      0.479067     -0.192125
O      13.60360     11.64925     11.54106         0.014722      0.046780      0.007397
O       5.84991      3.87070      2.90627        -0.145583     -0.562614     -0.622863
O       5.85553      3.91974     16.06744        -0.105348     -0.302072     -0.652776
O       5.94520     15.55326      2.80139        -0.200901      0.053754     -0.425346
O       5.67802      0.05673     15.98916         0.267298      0.220506     -0.257953
O       5.75572      3.88906      7.26946         0.240499     -0.663432     -0.240359
O       5.92704     15.59455      7.35666        -0.490462      0.019722     -0.870738
O       5.80906      3.92740     11.54462         0.323124      0.004333     -0.304947
O       5.75538      0.00590     11.58302         0.358864     -0.523274     -0.459105
O       5.83914      7.76040      2.79548         0.213234      0.049532     -0.356856
O       5.83914      7.88278     16.23266        -0.477250     -0.804438     -0.847224
O       5.66365      7.75965      7.08685         0.538082      1.277086     -0.062948
O       5.81851      7.86782     11.70551         0.050287     -0.679733     -0.823027
O       5.80877     11.65490      2.84428         0.161636      0.116358     -0.272700
O       5.89020     11.74665     15.97410        -0.174363     -0.868824     -0.096349
O       5.70493     11.74249      7.29889         0.562082     -0.236025     -0.762681
O       5.77215     11.63986     11.70113         0.490222      0.729581     -0.682017
O       9.71507      3.90476      2.92818         0.521920     -0.224536     -0.766434
O       9.55993      3.81990     15.92437         0.318788      0.612339     -0.326297
O       9.77280     15.53020      2.85559        -0.155394      0.587568     -0.384453
O       9.72747      0.01507     16.08191        -0.254610     -0.309356     -0.529126
O       9.72243      3.93853      7.36113        -0.125365     -0.378534     -0.785896
O       9.66880     15.57617      7.20935         0.167579     -0.149798     -0.559215
O       9.64260      3.92040     11.57746         0.389895     -0.495180     -0.524649
O       9.75205     15.57524     11.56952        -0.283349     -0.076031     -0.294227
O       9.65625      7.81611      2.88770         0.376519     -0.378606     -0.640252
O       9.81014      7.85501     16.11556        -0.322451     -1.174675     -0.752413
O       9.67926      7.81786      7.20279         0.069455      0.076642     -0.369271
O       9.71333      7.75930     11.68234         0.353527      0.599116     -0.518827
O       9.79135     11.67061      2.75772        -0.080859     -0.338450     -0.324911
O       9.65411     11.69950     16.08013        -0.018513      0.129344     -0.494410
O       9.74509     11.61442      7.30207        -0.310205      0.804802     -0.607395
O       9.73214     11.68675     11.65585         0.126266     -0.201738     -0.660020
