  # total energy = -7881.71008444 
CRSYTAL
PRIMVEC
    15.3600000000000000    0.0000000000000000    0.0000000000000000
     0.0000000000000000   15.3600000000000000    0.0000000000000000
     0.0000000000000000    0.0000000000000000    17.440000000000000
PRESSURE
1.73074 2.208 -2.35127 -0.135944 -0.065928 -0.032346
PRIMCOORD
320 1
Pb       3.80832      3.82812      4.36137        -0.143681      0.051004     -0.252584
Pb       3.87074      3.83209     17.38500        -0.029892      0.136742     -0.130192
Pb       3.81505      0.02156      4.28524        -0.173337      0.168510     -0.183060
Pb       3.67651      0.02428     17.40560         0.712538      0.005486      0.525031
Pb       0.02172      3.72707      4.35510        -0.087468      0.184022      0.364824
Pb       0.06894      3.97766     17.38451        -0.353348     -0.450164      0.071298
Pb       0.02139     15.32693      4.29292        -0.162327      0.148632      0.259132
Pb      15.23936     15.28430     17.40558         0.119952      0.580368      0.192725
Pb       3.76164      3.72728      8.75352         0.180500      0.303172     -0.124045
Pb       3.91257      0.00766      8.57967        -0.826747     -0.381685      1.088167
Pb      15.26096      3.86369      8.66461        -0.095630      0.194644      0.116691
Pb      15.23890      0.03501      8.66329         0.108190     -0.534608      0.260839
Pb       3.66636      3.73862     13.06984         0.550965      0.048039      0.171539
Pb       3.72266     15.28681     12.98197        -0.315673      0.720305      0.668776
Pb       0.01953      3.79873     13.05379        -0.121553      0.096522      0.158295
Pb       0.02751     15.34179     13.03574        -0.009412     -0.014004      0.178831
Pb       3.84659      7.64376      4.31743         0.226969     -0.337854     -0.257558
Pb       3.78213      7.58187     17.34805         0.065848      0.523553      0.185075
Pb       0.06531      7.79470      4.36449        -0.361094     -0.584606      0.361035
Pb      15.11705      7.69207     17.33714         0.856020     -0.200786      0.743234
Pb       3.89383      7.68124      8.71428         0.025080      0.110718     -0.333289
Pb       0.08285      7.59411      8.64419        -0.577322     -0.022914      0.875820
Pb       3.77894      7.58164     12.95017        -0.056817      0.550259      1.285869
Pb       0.03255      7.62620     13.08712        -0.206586      0.014463      0.255241
Pb       3.78247     11.58809      4.20935         0.045636     -0.314297      0.382763
Pb       3.97615     11.56896     17.40724        -0.177819     -0.322873      0.098753
Pb      15.32001     11.57450      4.35931         0.294017      0.144832      0.066428
Pb      15.29159     11.59464     17.27921        -0.027822     -0.193088      0.707391
Pb       3.85110     11.54656      8.60480        -0.295254     -0.005279      0.198416
Pb      15.24063     11.39193      8.65971         0.494333      0.610234      0.207545
Pb       3.86352     11.51492     13.16512        -0.365926     -0.702654     -0.283898
Pb       0.08405     11.57849     13.09787        -0.147226     -0.366816      0.093845
Pb       7.72588      3.72945      4.39712        -0.155687      0.171332      0.223968
Pb       7.65713      3.90785     17.35858         0.211567     -0.035188      0.302552
Pb       7.73551      0.06135      4.32798         0.087295      0.184279     -0.340562
Pb       7.64423      0.07609     17.32404        -0.119052     -0.358591      0.592760
Pb       7.69630      3.74632      8.76323        -0.267243      0.027057      0.319431
Pb       7.63864     15.16781      8.63986         0.227830      0.833911      1.264081
Pb       7.79610      3.85550     13.16596        -0.363953      0.186642     -0.543250
Pb       7.59309      0.11768     13.06084         0.618621     -0.289433      0.476892
Pb       7.68214      7.55153      4.29580         0.218278      0.170828      0.570741
Pb       7.65932      7.75679     17.37678         0.051159     -0.812232      0.660190
Pb       7.62824      7.70059      8.63548         0.170773     -0.103546      0.537633
Pb       7.51460      7.67806     12.99435         0.711196     -0.066759      0.491668
Pb       7.66333     11.55707      4.31252         0.231293     -0.210457      0.227549
Pb       7.76594     11.49559      0.04627         0.117296      0.402327     -0.056203
Pb       7.45099     11.52965      8.53930         0.862617     -0.267688      1.488644
Pb       7.69663     11.42615     13.06755        -0.043093     -0.294724     -0.512042
Pb      11.43765      3.80401      4.29921        -0.199365     -0.119364      0.982200
Pb      11.73991      3.86584     17.40498        -0.866458     -0.095744      0.377719
Pb      11.43836     15.25608      4.28596         0.072330      0.227472      0.334854
Pb      11.44435     15.29507     17.42748         0.193676      0.221146      0.136358
Pb      11.36255      3.87492      8.69484         0.564897     -0.249847      0.468017
Pb      11.54394     15.29408      8.67307        -0.439481     -0.132633      0.413825
Pb      11.60400      3.74356     13.10647        -0.345081      0.229841     -0.137046
Pb      11.61959      0.00415     12.91302        -0.429503     -0.025030      1.081571
Pb      11.44338      7.71692      4.27974        -0.097978      0.103126      0.670710
Pb      11.59341      7.62157     17.36962        -0.487608      0.140547      0.979354
Pb      11.44231      7.66008      8.71440         0.223270     -0.154723      0.016226
Pb      11.41697      7.69180     12.99995         0.691735     -0.059403      0.216805
Pb      11.58263     11.44268      4.32403        -0.553260      0.574023      0.331350
Pb      11.44808     11.42423     17.36925         0.344945      0.287279      0.995947
Pb      11.63514     11.50303      8.58651        -0.520834      0.178479      0.536936
Pb      11.52908     11.45094     12.97900        -0.160236     -0.220349      0.853253
Ti       1.82067      1.86689      2.29197         0.487577      0.013015     -0.433508
Ti       1.84724      1.93332     15.49843        -0.574727      0.468780     -1.131064
Ti       1.90355     13.37091      2.18367        -0.648171      1.262553      1.408758
Ti       1.88691     13.45454     15.46097         0.506937      0.338766     -1.085896
Ti      13.34305      1.91924      2.32145         0.997986     -0.108083     -1.227875
Ti      13.39414      1.85758     15.51991         0.024906      0.204654     -0.756582
Ti      13.45589     13.44103      2.38727        -2.009884      0.291985     -1.814199
Ti      13.35710     13.40961     15.39806         0.288977      0.367205     -0.910873
Ti       1.84358      1.86926      6.66651         0.056180      0.091765      0.206409
Ti       1.79814     13.44236      6.75203         0.085800     -0.415757     -1.202862
Ti      13.39863      1.89447      6.70149        -0.808246     -0.874288     -0.984567
Ti      13.38590     13.40276      6.67655         0.067588      0.175747     -0.443048
Ti       1.79548      1.89496     11.01617         0.798705     -0.793706      0.797516
Ti       1.90861     13.34675     11.08084        -0.408151      0.430743     -1.974735
Ti      13.38756      1.89113     10.99189        -0.054300      0.107364     -0.250555
Ti      13.37021     13.32632     11.14991         0.949167      0.504875     -2.239188
Ti       1.81529      5.79095      2.33841         0.869568     -1.281323     -1.343314
Ti       1.92405      5.79983     15.45783        -0.482198     -0.113020     -1.238700
Ti      13.43567      5.72911      2.58427        -0.323981      0.538346     -1.711892
Ti      13.38503      5.70328     15.34081         1.247557      0.241177     -1.211221
Ti       1.91257      5.71504      6.79958         0.489441      0.163889     -0.896471
Ti      13.37898      5.71605      6.70740         0.259033      0.231791     -1.194916
Ti       1.88690      5.77220     11.05623        -0.791285     -0.390268     -0.599647
Ti      13.44952      5.72782     11.09598        -0.421581      0.030616     -2.197689
Ti       1.95288      9.55808      2.27430         0.570457      0.332590     -1.774799
Ti       1.89225      9.62521     15.49531         1.720373     -0.616794     -1.884513
Ti      13.53902      9.61056      2.42451        -0.674880     -0.113920     -1.416944
Ti      13.47093      9.60514     15.32485        -0.459613     -0.030682     -1.200599
Ti       1.97273      9.57681      6.68197         0.333863      0.088858      0.462059
Ti      13.49621      9.47579      6.74496        -0.662014     -0.173937     -0.796828
Ti       1.93416      9.59720     11.09467        -0.190725     -0.569905     -0.602322
Ti      13.54805      9.58052     11.07974        -0.399193     -1.012098     -0.626434
Ti       5.76436      1.96337      2.38459        -0.106894     -0.868382     -0.638596
Ti       5.68140      1.85598     15.43577         0.495924      0.657312     -2.103919
Ti       5.69502     13.46434      2.36492         0.972397      0.709157     -0.970517
Ti       5.78396     13.40729     15.34193         0.131072      0.243337      1.964016
Ti       5.73946      1.90293      6.72825        -0.253464      0.342859     -1.384901
Ti       5.72097     13.46838      6.57954        -1.131269     -0.485487     -0.302265
Ti       5.73338      1.91265     11.18484        -0.625984      0.917904     -1.241009
Ti       5.72501     13.49381     11.18804         0.322848     -1.700334     -2.060150
Ti       5.76697      5.66875      2.32798         0.018363      0.846412     -0.247100
Ti       5.77632      5.72937     15.35136        -0.523928     -0.196331     -0.211820
Ti       5.79370      5.65655      6.75319        -0.569165      0.119966     -0.741201
Ti       5.70830      5.77725     11.02698         1.083017     -1.586794     -0.507942
Ti       5.86702      9.57694      2.29741        -1.247762     -0.315068     -0.701922
Ti       5.80697      9.57946     15.50038        -1.075461     -0.614754     -0.640210
Ti       5.85924      9.54149      6.56021        -0.955765      0.059231      1.153863
Ti       5.71795      9.57665     11.04438         0.255293      0.376218     -1.519196
Ti       9.63215      1.96586      2.22036        -1.051356     -0.985407      1.338927
Ti       9.54272      1.97807     15.41997         0.506319      0.127203     -1.439044
Ti       9.55675     13.40347      2.40586         0.277840      0.590539      0.052402
Ti       9.61307     13.48570     15.42807        -0.595881      0.072555      0.176431
Ti       9.56109      1.87882      6.80133        -0.050175     -0.431384     -1.373696
Ti       9.55433     13.43016      6.70061         0.714026     -0.165431     -1.577905
Ti       9.52406      1.85782     11.12338         0.502655      0.785216     -1.352509
Ti       9.58069     13.36033     11.11802        -1.191918      1.007608     -2.309489
Ti       9.56274      5.67936      2.35162        -0.657012      0.990780     -1.882901
Ti       9.62618      5.81143     15.42277        -0.475229     -1.366115      0.479150
Ti       9.58611      5.73381      6.81181        -0.806203      0.557622      0.918258
Ti       9.64811      5.79605     11.05858        -0.896839     -1.390560     -1.804494
Ti       9.62620      9.63626      2.41573         0.087421     -0.399929     -0.863515
Ti       9.65629      9.58548     15.43699        -0.575885      0.028170     -0.742289
Ti       9.66375      9.65132      6.77664        -1.330517     -1.064841     -1.995150
Ti       9.67258      9.59480     10.90616        -1.372881      0.046466     -0.808213
O       1.85144      1.83941      0.49903        -0.084017      0.472450      0.102266
O       1.83077      1.81268     13.67930        -0.122361      0.278581      0.719822
O       1.88863     13.39449      0.45504        -0.060655      0.185706     -1.040316
O       2.01897     13.42061     13.63132        -0.510670      0.024191      0.831536
O      13.42174      2.08828      0.42283        -0.143804     -0.669581      2.130413
O      13.33394      1.70578     13.74803         0.406300      0.594210     -0.275424
O      13.28212     13.37406      0.57465         0.504890      0.172818      0.226531
O      13.36854     13.32626     13.59626         0.037481      0.313840      0.251574
O       1.81910      1.80553      4.88416         0.099623      0.184429      0.677751
O       1.75587     13.48777      4.94451         0.087864     -0.262971      0.384686
O      13.39939      1.75499      4.94039        -0.148788      0.362479     -0.069077
O      13.33304     13.42447      4.91178         0.338158      0.041386     -0.688722
O       1.84394      1.90447      9.28661        -0.233353     -0.072407     -0.531771
O       1.89800     13.29261      9.28606        -0.150283     -0.051056      0.372988
O      13.35818      1.79979      9.20525         0.233282      0.348544      0.727275
O      13.37421     13.27930      9.28934        -0.074491     -0.070958      1.237044
O       1.86108      5.77359      0.47442         0.057920     -0.192790      1.609312
O       1.87149      5.68524     13.66648        -0.152570      0.283289     -0.401842
O      13.41181      5.71772      0.71067         0.020938      0.006148      1.115685
O      13.39614      5.78587     13.54437        -0.079618     -0.334535      0.873806
O       1.97655      5.67695      5.02277        -0.038281      0.463242     -0.160101
O      13.45863      5.87854      4.89491        -0.182511     -0.289141      0.471687
O       1.74656      5.79493      9.27269         0.471995     -0.250576      0.638263
O      13.40203      5.66177      9.18748        -0.048214     -0.112338      1.565293
O       1.89309      9.56001      0.46964        -0.123314      0.195601      0.886354
O       2.13487      9.58821     13.67007        -0.782222      0.256935      1.154976
O      13.51567      9.56994      0.63130        -0.002087      0.417633      0.279122
O      13.48910      9.66597     13.53854        -0.416546     -0.322231      1.072464
O       1.95159      9.53008      4.91321         0.010480     -0.121350     -0.321310
O      13.57473      9.44789      4.94315        -0.171848      0.287914      0.040650
O       1.92677      9.57769      9.32356        -0.245027      0.043566      0.022480
O      13.49611      9.57485      9.23680        -0.165444      0.292910      1.216106
O       5.83855      1.91629      0.60740        -0.463137      0.160555     -0.326698
O       5.62772      1.84567     13.57786         0.583171     -0.024964      1.242301
O       5.68817     13.49707      0.57146         0.135934     -0.245599      0.713445
O       5.72838     13.35107     13.62164         0.038652      0.116298     -1.320280
O       5.69287      2.03595      4.91438        -0.136141     -0.472591      0.594996
O       5.60874     13.51435      4.82137         0.278537     -0.304183      0.436512
O       5.73721      1.83569      9.38761        -0.380452      0.176235      0.476308
O       5.76574     13.20563      9.38100        -0.363507      1.084349      0.476086
O       5.80207      5.66003      0.54364        -0.451997     -0.134035      0.448087
O       5.82017      5.70931     13.59315        -0.139320      0.473470     -0.024414
O       5.80062      5.70441      4.93375        -0.696160     -0.102389      0.875329
O       5.80191      5.77010      9.22419        -0.308426     -0.173714      1.299255
O       5.74611      9.60485      0.47775         0.462509      0.030486      1.003350
O       5.87599      9.55294     13.71081        -0.120887      0.075653     -0.105215
O       5.83471      9.68086      4.82117        -0.337636     -0.594026     -0.173211
O       5.73445      9.43877      9.21342         0.028226      0.726540      1.623317
O       9.70726      1.96983      0.52331        -0.347677     -0.183130     -1.557966
O       9.36928      1.95731     13.53348         0.797046     -0.058048      1.424003
O       9.53864     13.32025      0.63704         0.257157      0.337781     -0.537493
O       9.74118     13.47348     13.72027        -0.617985     -0.434564     -1.023855
O       9.39728      1.96740      4.96297         0.682670     -0.296297      1.182340
O       9.62534     13.49757      4.82883        -0.454815     -0.109762      2.090557
O       9.45934      1.87083      9.27511         0.271262     -0.028807      1.038925
O       9.55377     13.47262      9.29147         0.024729     -0.297015      1.135561
O       9.56394      5.73789      0.55186         0.091115      0.080280      0.936276
O       9.62680      5.65840     13.67437         0.157329      0.411355     -0.400453
O       9.39175      5.65313      5.12194         0.258720      0.141831     -2.321793
O       9.64281      5.71117      9.10385         0.081216     -0.149850      2.416417
O       9.56941      9.69971      0.58583         0.178784     -0.158374      0.753218
O       9.57071      9.54985     13.66412         0.204870      0.250487      0.600452
O       9.52674      9.49865      4.89945         0.455540      0.436529      1.132769
O       9.55113      9.57528      9.08981         0.590783      0.175201      1.503561
O       3.71625      1.88584      2.64393         0.724102     -0.188577      0.395641
O       3.81178      1.87337     15.75395         0.374630      0.242016      0.579371
O       3.76289     13.48092      2.73009         0.149830      0.181375     -0.181601
O       3.79709     13.51696     15.91863         0.425068     -0.362035     -0.743417
O      15.25836      1.91769      2.85737        -0.544188     -0.206059     -0.777297
O      15.29606      2.03226     15.82247         0.719033     -0.681742      0.076269
O      15.26993     13.39492      2.57627         1.301600      0.064421      0.447862
O      15.31650     13.51750     15.77516         0.023540     -0.169260      0.114463
O       3.75986      1.86150      7.17391        -0.485732     -0.057144     -0.393303
O       3.70280     13.46312      7.03395         1.324677     -0.242015      0.112903
O      15.25444      1.85441      7.11057         1.036267      0.072477      0.053936
O      15.23864     13.29092      7.07549         0.774337      0.376962      0.289341
O       3.67637      1.84008     11.59090         0.642877      0.576550     -0.753271
O       3.76554     13.42552     11.45613         1.166704     -0.390607      0.280484
O      15.27686      1.78665     11.58223         0.021169      0.465739     -0.711436
O      15.33294     13.36067     11.47429        -0.001943     -0.116668      0.241918
O       3.76728      5.74877      2.79233        -0.204250      0.110397     -0.268152
O       3.78894      5.65097     15.67602         0.981677      0.466766      0.797587
O      15.30795      5.71283      2.86301         0.557442     -0.131424     -0.295164
O      15.31129      5.79134     15.78765        -0.434321      0.247038      0.075606
O       3.81480      5.70808      7.26490        -0.097097      0.004606     -0.377583
O      15.29185      5.73815      7.12674         0.250434     -0.126613     -0.148800
O       3.78172      5.69854     11.51161         0.242998      0.215223     -0.789611
O      15.27386      5.74116     11.48514         1.610296      0.035183      0.158863
O       3.87446      9.50601      2.60467        -0.336717      0.026127      0.536688
O       3.83235      9.62994     15.85044         0.018654      0.232224      0.273016
O       0.09789      9.66000      2.76768        -0.610182      0.194482      0.195006
O      15.33416      9.50262     15.68178        -0.377870      0.437186      0.385621
O       3.84812      9.54227      7.16612         0.328293     -0.042406     -0.822063
O      15.30915      9.44526      7.16692         0.864321      0.554630     -0.603059
O       3.80498      9.53139     11.45002         1.597776     -0.365564      0.001364
O       0.02643      9.58451     11.63452        -0.104305      0.050778     -0.700960
O       7.66090      1.90639      2.71145        -0.155303      0.191076      0.044553
O       7.68412      2.03594     15.78010        -0.803265     -0.707080      0.242344
O       7.65434     13.40133      2.78876        -0.531853      0.099311     -0.110534
O       7.67534     13.46020     15.82830        -0.136904     -0.454875     -0.302779
O       7.55469      1.83830      7.04771         0.688970      0.130074      0.475893
O       7.59978     13.42540      7.14600         0.130264     -0.107282     -1.109606
O       7.64326      1.85356     11.46824        -0.457759     -0.278971      0.098221
O       7.67234     13.46647     11.45581        -0.203681      0.246975      0.659574
O       7.67502      5.71621      2.82223         0.012453     -0.400053     -0.432338
O       7.63210      5.80427     15.85929         0.947288      0.045247     -0.419561
O       7.62524      5.60595      7.04067        -0.175545     -0.132560      0.814841
O       7.71906      5.84133     11.49550         0.238780     -0.232597     -0.555728
O       7.69072      9.73629      2.71105        -0.272302     -0.315938     -0.226540
O       7.69879      9.55198     15.87984         0.138763      0.216463     -0.206330
O       7.66734      9.60603      7.08819        -0.609439     -0.211263     -0.382780
O       7.80954      9.42334     11.41971        -1.022206      0.381929     -0.045324
O      11.47712      1.97718      2.69228         0.393641      0.088648      0.126020
O      11.47954      1.99612     15.76831         0.174221     -0.270482      0.180475
O      11.43983     13.36346      2.79294         0.613304      0.574066      0.084574
O      11.49967     13.59295     15.78444         0.030613     -0.901705      0.335865
O      11.43366      1.72267      7.13679         0.227292      0.598294     -0.287898
O      11.44962     13.36132      7.08413        -0.082262      0.200833      0.074205
O      11.51153      2.04499     11.55720         0.535611     -0.781610     -0.749337
O      11.42433     13.24372     11.47279         1.601506      0.323236     -0.095496
O      11.38015      5.77852      2.87362         1.173525     -0.269195     -0.047382
O      11.57707      5.74407     15.89365        -0.833554      0.070241     -0.450350
O      11.44037      5.66292      6.88598         1.146780     -0.188142      0.832992
O      11.55685      5.59682     11.41285        -0.855823      0.316326      0.252381
O      11.52704      9.59582      2.74011         0.519617      0.048251      0.139850
O      11.51990      9.57025     15.81236         0.399922      0.374801     -0.143672
O      11.46343      9.50748      7.09061         1.543310      0.333315      0.009422
O      11.51542      9.58495     11.52877         0.544773      0.281013     -0.773763
O       1.79932      3.71322      2.70042         0.103830      1.739168      0.106116
O       1.94138      3.89627     15.73498        -0.361702     -1.335004      0.764860
O       1.77412     15.30726      2.66328         0.174683     -0.198976     -0.011468
O       1.87558      0.08430     15.93434        -0.441562     -1.217927     -0.438996
O      13.32377      3.84218      2.93723         0.403147     -0.228964     -0.610392
O      13.51096      3.86289     15.76159        -0.667448      0.272750     -0.153526
O      13.28950      0.03299      2.62510         0.268878      0.180227     -0.037586
O      13.43476     15.29715     15.86092        -0.126780      0.576884      0.222410
O       1.82448      3.81891      7.07780         0.122237     -0.873282      0.274209
O       1.76843     15.34871      7.06647         0.035221      0.016112      0.307932
O      13.37916      3.71860      6.95757        -0.143310      1.600631      0.399823
O      13.37762     15.24821      7.07156         0.228056      0.365797      0.493652
O       1.85714      3.83489     11.34735        -0.377045     -0.247268      0.484692
O       1.86556     15.28868     11.35822        -0.234939      0.073253      0.426640
O      13.54896      3.79426     11.44235        -0.284959     -0.680801      0.075956
O      13.38762     15.28760     11.30595        -0.316554      0.058147      0.395365
O       1.81598      7.63192      2.61801         0.275182      0.409357      0.446712
O       1.93629      7.70256     15.72420         0.029543     -0.023329      0.438970
O      13.53490      7.74133      2.64968        -0.295258     -0.709736      0.722364
O      13.31909      7.71336     15.82621         0.548226     -0.371466     -0.463112
O       1.91987      7.66284      7.16877        -0.021541     -0.099056     -0.397664
O      13.32704      7.58465      7.17265         0.092497      0.411057     -0.267795
O       1.84686      7.64226     11.55736         0.253519     -0.282512     -0.359478
O      13.45944      7.63465     11.46502        -0.363847      0.683880     -0.120483
O       1.93268     11.57377      2.58812         0.057404     -1.420820      0.500729
O       1.79339     11.59584     15.69352         0.180234     -0.622602      0.451035
O      13.36970     11.59679      2.75978         0.495444     -1.736958      0.478350
O      13.48445     11.52536     15.70794        -0.347990     -0.422624      0.368036
O       1.89548     11.46426      6.93365        -0.256483     -0.220386      0.542697
O      13.41114     11.45922      6.91671        -0.241338     -0.992882      0.748916
O       2.06435     11.39534     11.47471        -0.814503      1.650250      0.481825
O      13.53983     11.45551     11.43818        -0.610266     -0.082431      0.136550
O       5.65286      3.84206      2.75009         0.100541     -0.401565      0.067021
O       5.78421      3.82189     15.71054        -0.414530     -0.369467      0.554973
O       5.78489      0.02784      2.79559        -0.501489     -0.194095     -0.026753
O       5.87804     15.33676     15.74571        -0.511485      0.211607     -0.049058
O       5.58712      3.71619      7.22639         0.512239      0.729724     -0.203366
O       5.66327     15.30060      7.07649         0.226560      0.125238     -0.149271
O       5.78526      3.85062     11.47555        -0.346027     -0.271008     -0.245425
O       5.63794     15.33520     11.45724         0.391643      0.065188      0.253886
O       5.89842      7.56859      2.64105        -0.638202      1.643283      0.217044
O       5.62430      7.60736     15.85544         0.638162      0.679590     -0.164171
O       5.82276      7.60604      7.08932        -0.472373      0.515819     -0.654202
O       5.76767      7.64298     11.38224        -0.424932      0.256823      0.456765
O       5.67658     11.55129      2.71571         0.016757     -0.524239     -0.137827
O       5.72333     11.49017     15.75158         0.171390      0.706503      0.164021
O       5.77162     11.54137      6.95136        -0.630940     -0.288109     -0.131132
O       5.82554     11.44819     11.38241        -0.128711     -0.394562      0.836756
O       9.47739      3.79184      2.70049         0.638073      0.744101      0.269624
O       9.57382      3.84081     15.82771         0.075310      0.917231     -0.252123
O       9.56568      0.04878      2.73740         0.097705     -0.289043     -0.239733
O       9.54625      0.08293     15.77770         0.111529     -0.757935      0.383713
O       9.56234      3.70188      7.21655        -0.165269      0.792833     -0.190396
O       9.49782     15.30097      7.17450         0.039753     -0.427705     -0.384777
O       9.53017      3.79429     11.42022         0.002976      0.816274      0.054199
O       9.74202      0.00916     11.48836        -0.580575     -0.591266     -0.137226
O       9.57788      7.69756      2.77280        -0.407756     -0.143891     -0.194907
O       9.63915      7.65485     15.79280         0.032776      0.442807      0.190063
O       9.56263      7.67784      7.22852        -0.037979     -0.592995     -0.758969
O       9.78052      7.65414     11.35055        -0.156925     -0.243317     -0.146142
O       9.61919     11.53909      2.80199        -0.205926     -0.899842      0.212472
O       9.61107     11.51338     15.94114        -0.127988      0.109195     -0.882221
O       9.56324     11.50637      7.02319        -0.093054      0.740057      0.046682
O       9.49973     11.45541     11.41500         0.292400     -0.059626      0.193897
