  # total energy = -7863.04082193 
CRSYTAL
PRIMVEC
    15.010000000000000    0.0000000000000000    0.0000000000000000
     0.0000000000000000   15.010000000000000    0.0000000000000000
     0.0000000000000000    0.0000000000000000    16.400000000000000
PRESSURE
18.0004 18.4965 7.55416 0.180282 0.144538 -0.050698
PRIMCOORD
320 1
Pb       4.03156      3.67062      4.39337        -1.214208      0.612284     -0.692693
Pb       3.84153      3.79577      0.15729        -0.207221     -0.368765     -0.597781
Pb       3.67820      0.16630      4.16635        -0.281865     -0.449527     -0.745652
Pb       3.79782      0.02547     16.35246        -0.485864     -0.214960      0.025191
Pb      14.93502      3.62698      4.07373         0.240121      0.320324      0.010488
Pb       0.03670      3.66356     16.35980        -0.104945      0.461262     -0.312496
Pb      14.97692      0.06296      4.23784         0.540838     -0.203642     -0.717561
Pb      14.88529      0.01319      0.06189         0.170843     -0.611785     -0.772623
Pb       3.82714      3.62614      8.34253        -0.398769      0.763547     -0.230792
Pb       3.86491     14.87331      8.32213        -1.205760     -0.149068     -0.131473
Pb       0.08600      3.77031      8.33560        -0.038912     -0.086783     -0.869323
Pb      14.96675     14.87827      8.17748         0.270424     -0.028638      0.113159
Pb       3.83147      3.74408     12.21444        -0.763470     -0.621202      0.189464
Pb       3.73936      0.01676     12.51327        -0.045308      0.168421     -0.501870
Pb       0.05526      3.67419     12.34370        -0.217604      0.161525     -0.150846
Pb       0.03991      0.02039     12.29991        -0.581523      0.260229      0.096201
Pb       3.50091      7.57172      4.09323         0.832081     -0.280233      0.224054
Pb       3.77560      7.40971      0.28646        -0.580143     -0.474204     -0.697194
Pb      14.90640      7.49135      4.13028         0.036067     -0.376868     -0.412746
Pb      14.94803      7.54553      0.10470         0.173448     -0.337155     -0.911621
Pb       3.68912      7.57196      8.03457         0.132451     -0.294652      0.167398
Pb       0.00690      7.52661      8.23822        -0.316581     -0.117588     -0.139753
Pb       3.77623      7.59791     12.30161        -0.624242     -0.419490     -0.074668
Pb       0.07514      7.30354     12.33568        -0.130290      0.463437     -0.074442
Pb       3.53561     11.24350      4.23291         0.562645     -0.196248     -0.764175
Pb       3.72303     10.98438     16.31848        -0.494216      1.523786     -0.235179
Pb      14.96595     11.22082      4.12351        -0.151929      0.293749     -0.461170
Pb      14.91896     11.39171      0.08078         0.023498     -0.203871     -0.469661
Pb       3.66853     11.06101      8.26330         0.183414      0.823373      0.164111
Pb      14.99349     11.13056      8.17693        -0.325618      0.506116      0.594393
Pb       3.75858     11.31029     12.37338        -0.069859     -0.109866      0.041725
Pb       0.02465     11.30327     12.33446        -0.680711     -0.582541     -0.158754
Pb       7.51318      3.69513      4.18960         0.543334     -0.229765     -0.297160
Pb       7.56028      3.86602     16.37238        -0.348733     -0.413989      0.104548
Pb       7.45599     14.86768      4.28907         0.997572      0.689936     -1.304373
Pb       7.30746     15.00700     16.39522         0.385598      0.130310      0.198936
Pb       7.52550      3.64429      8.24685         0.195718      0.228049      0.114171
Pb       7.51602     14.99880      8.30382         0.329627     -0.489929     -0.067485
Pb       7.45632      3.74483     12.25049         0.228718     -0.997424      0.096940
Pb       7.61294     14.81112     12.45536        -0.287769      0.371099     -0.492963
Pb       7.24705      7.53318      4.02183         0.359990      0.062395     -0.312562
Pb       7.49228      7.47419      0.08372         0.101040     -0.353087     -0.150045
Pb       7.49987      7.49314      8.40622        -0.851741      0.141252     -0.426029
Pb       7.59560      7.40764     12.54154        -0.136208      0.447588     -0.349200
Pb       7.45237     11.37027      4.11537         0.032081     -0.168415     -0.701489
Pb       7.53531     11.27676      0.12143        -0.243780      0.355612     -0.564987
Pb       7.44042     11.19385      8.27507        -0.892977      0.305203      0.103464
Pb       7.55426     11.15580     12.37414        -0.536525      0.447349     -0.070924
Pb      11.13631      3.76249      4.16877         0.250385     -0.352302     -0.482164
Pb      11.32603      3.84076     16.38701        -0.358093     -0.382430     -0.214702
Pb      11.45995     14.99803      4.28115        -1.821912     -0.117357     -1.379419
Pb      11.01837     14.91448      0.15992         1.150034     -0.200356     -0.691554
Pb      11.46619      3.79093      8.12350        -0.734422     -0.391497      0.013148
Pb      11.33719     14.86319      8.26555        -0.602037      0.191578      0.047745
Pb      11.35129      3.72409     12.19329        -0.042813     -0.543342      0.421827
Pb      11.30008      0.15536     12.30069         0.205710     -0.276633     -0.071165
Pb      11.19816      7.45721      4.23095         0.198258     -0.067605     -0.944964
Pb      11.08590      7.46076      0.17096         0.433045     -0.070860     -0.864109
Pb      11.03816      7.44208      8.19364         1.238548      0.077339      0.120753
Pb      11.32390      7.29529     12.30192         0.050964      0.605140      0.059498
Pb      11.31309     11.30267      4.19185        -0.698008     -0.103384     -0.845571
Pb      11.20639     11.11741      0.09794         0.271828      0.616168     -0.586516
Pb      11.02492     11.16268      8.33569         1.068246      0.201331     -0.795362
Pb      11.17333     11.33145     12.25712         0.385965     -0.552613      0.159129
Ti       1.81368      1.87237      1.94148         0.880460      0.310464      1.125058
Ti       1.78572      1.84188     14.23910         0.988515      0.697247      0.950736
Ti       1.80448     13.20412      2.12742         0.263427     -0.323717     -1.138852
Ti       1.79215     13.09149     14.41689         0.550332      0.155141      0.549381
Ti      13.11928      1.84588      2.00426        -0.863320      0.919054      0.558775
Ti      13.06559      1.87061     14.46338         1.209524     -0.668462     -0.753733
Ti      13.05747     13.13180      2.11355        -0.743575     -0.412193      0.062079
Ti      13.08354     13.09991     14.20657        -0.148401      1.335123      1.529653
Ti       1.88016      1.85655      6.17506        -0.923297      0.819777     -0.064780
Ti       1.84358     13.18136      6.20584         0.251773     -0.852843     -0.054933
Ti      13.11949      1.75642      6.20658         0.794553      2.314072      0.412055
Ti      13.06204     13.06153      6.19117         0.499538     -0.650351      0.387641
Ti       1.87375      1.81375     10.20137         1.026890      0.150664      0.998434
Ti       1.81889     13.13800     10.31765         0.370011      0.004355     -1.071662
Ti      13.23625      1.85196     10.12283        -0.858575     -0.295419      1.745059
Ti      13.13631     13.08006     10.34151         0.402977      0.472444     -0.727257
Ti       1.75539      5.58078      2.10896         0.730829      0.110594      0.410288
Ti       1.86690      5.56771     14.44603         0.707087      0.297480     -0.857646
Ti      13.08294      5.61446      1.97179        -0.059738     -0.445627      0.939180
Ti      13.15348      5.63029     14.32698        -0.282617     -0.359096      0.181685
Ti       1.82727      5.57017      6.09954         0.542373      0.181352     -0.516630
Ti      13.14534      5.62721      6.10495         0.272991     -0.939141     -0.001743
Ti       1.85000      5.60530     10.23200         1.147305      0.301804      0.174665
Ti      13.13894      5.61867     10.18758        -0.054864      0.160883      0.927451
Ti       1.77861      9.39350      1.98733         0.620529      0.435805      0.964855
Ti       1.70840      9.30864     14.29230         0.645824      0.636909      1.054203
Ti      13.09409      9.32986      1.96652        -0.562133      0.895303      1.129050
Ti      13.07705      9.35883     14.32405         0.604681      0.510547     -0.275006
Ti       1.70960      9.39724      6.18978         2.104834     -0.381770     -0.353172
Ti      13.00932      9.38644      6.11141        -0.458315     -0.269542      0.840508
Ti       1.77508      9.39506     10.41629        -0.119361     -0.598518     -0.816273
Ti      13.06970      9.32563     10.28346         1.670850      1.477055     -0.035244
Ti       5.62867      1.89116      2.21137         1.144158     -0.470607     -1.463143
Ti       5.63517      1.92789     14.47227        -0.513455      0.203325     -0.673560
Ti       5.53865     13.19715      2.03726        -0.257655     -0.483691     -0.535203
Ti       5.54663     13.09757     14.29493         1.020665     -0.478258      1.085490
Ti       5.66637      1.79497      6.27232         0.072606      0.991183     -0.384975
Ti       5.51151     13.20805      6.09243         0.772006     -1.856371      0.829499
Ti       5.63127      1.78176     10.26376         0.728000      1.256624      1.016636
Ti       5.53874     13.14103     10.23208         1.062154     -1.129513      0.071940
Ti       5.54517      5.57744      2.16252         0.093667      0.795610      0.328124
Ti       5.54534      5.59973     14.16747        -0.283136     -0.289262      1.551283
Ti       5.66202      5.68159      6.17433        -1.357551      0.097932      0.643675
Ti       5.59877      5.63510     10.28483        -0.498565     -0.546561     -0.840007
Ti       5.60600      9.47915      1.93628        -0.058331     -0.562426      1.815294
Ti       5.59088      9.26421     14.44299        -0.248645      1.709858     -1.091161
Ti       5.56229      9.46393      6.07210        -0.509676     -0.234773      0.246555
Ti       5.57426      9.40013     10.39270         0.074281      0.165024     -0.830365
Ti       9.39266      1.86205      1.92731        -0.808860     -0.554719      1.758290
Ti       9.37614      1.81473     14.38796         0.027268      0.887201     -0.503991
Ti       9.32622     13.14186      2.03664         0.227281      0.389619      1.483254
Ti       9.41361     13.07539     14.40700        -0.540432      0.561646     -0.179378
Ti       9.37344      1.82344      6.17186         0.893968     -0.277500     -0.363163
Ti       9.30130     13.05984      6.26511        -0.062369      1.119570     -0.429861
Ti       9.45192      1.84185     10.23978        -0.524583      0.793827      0.175789
Ti       9.38688     13.17684     10.25269        -1.096795     -0.098799      0.386672
Ti       9.33013      5.59341      2.09795        -0.060155     -0.230192     -0.138574
Ti       9.41663      5.59219     14.37272         0.283702      0.120144      0.983739
Ti       9.31193      5.63238      6.21597         0.064190     -1.519377     -0.586475
Ti       9.31862      5.57117     10.33454         0.622382     -0.941247     -0.913122
Ti       9.37979      9.36659      2.07648        -0.233664      0.912626      0.612707
Ti       9.33604      9.35053     14.37565         0.843585      0.245811      0.434477
Ti       9.23395      9.32867      6.04051         0.633189      1.178377      0.569787
Ti       9.37293      9.35393     10.27061        -0.226820      0.419714      0.637511
O       1.73754      1.77514      0.15146         0.414057      0.212311     -0.006479
O       1.77515      1.93115     12.41431         0.079594      0.020038     -0.088653
O       1.83690     13.25683      0.26707        -0.329289     -0.036553     -0.370250
O       1.98766     13.15896     12.59961        -0.325390     -0.238193     -1.058952
O      13.14746      2.02917      0.19899        -0.002830     -0.744141     -0.211669
O      13.17692      1.91993     12.61567        -0.168613      0.112207     -0.866423
O      12.96968     13.16329      0.32760         0.145571     -0.286491     -0.874551
O      13.15939     13.30058     12.43331        -0.323771     -0.673329     -0.538137
O       1.74958      1.87581      4.33074         0.587519      0.022238      0.272208
O       2.06974     13.06928      4.36493        -0.850437      0.641936     -0.458188
O      13.29812      1.77191      4.38598        -0.974229      0.150874     -0.911414
O      13.06789     13.12544      4.35530         0.110211      0.256279      0.040069
O       1.96489      1.91590      8.41541        -0.105492     -0.123855     -1.653854
O       1.68193     13.11923      8.45374         0.378447      0.300688     -0.324057
O      13.27165      1.81936      8.36187        -0.640779      0.035956     -1.357832
O      13.16986     13.19390      8.43946         0.194552     -0.240334     -0.315559
O       1.90422      5.70104      0.28032        -0.059556      0.069576     -1.148611
O       1.88156      5.57038     12.55755        -0.150029      0.220785     -0.313713
O      13.05290      5.63761      0.16744         0.281512      0.267478     -0.456508
O      13.05752      5.59026     12.44725         0.332570      0.265149      0.076483
O       1.78866      5.66343      4.23029         0.119060     -0.042452      0.517820
O      13.08228      5.63010      4.27310        -0.135384      0.155463      0.354250
O       1.84487      5.67804      8.39550        -0.158413      0.094073     -0.406069
O      13.13541      5.64022      8.41479         0.088658      0.315405     -1.277028
O       1.69879      9.35647      0.22518         0.610556     -0.146399     -1.134126
O       1.68111      9.35680     12.48529         0.479444      0.201862     -0.679963
O      13.10130      9.41616      0.15665        -0.139620     -0.184777     -0.026712
O      13.25827      9.56711     12.53509        -0.573351     -1.036700     -0.192358
O       1.84535      9.48977      4.30728        -0.014685     -0.315682     -0.206038
O      13.09043      9.51805      4.31812         0.045777     -0.794671     -0.453619
O       1.80287      9.42586      8.41591         0.016492     -0.604856     -0.028188
O      13.22323      9.46002      8.45864        -0.594999     -0.347309     -0.902876
O       5.64079      1.96296      0.25837        -0.340969     -0.040879     -0.363142
O       5.73172      2.07832     12.64033        -0.151173     -0.746264     -0.761626
O       5.66769     13.21778      0.16249        -0.173866      0.039041      0.285943
O       5.59307     13.04010     12.47028        -0.202051      0.481336     -0.635804
O       5.65380      1.77907      4.36697        -0.001747      0.182621      0.076473
O       5.50176     13.31213      4.26469         0.022320     -0.595712     -0.137257
O       5.52452      1.93410      8.42189         0.141674     -0.594015     -1.270952
O       5.65930     13.11134      8.38537        -0.065295      0.372642      0.152432
O       5.51471      5.55833      0.32434         0.130889      0.435110     -0.687130
O       5.49318      5.51316     12.35866         0.645705      0.790158      0.609654
O       5.67987      5.67808      4.34840        -0.139714     -0.362938     -0.970821
O       5.76835      5.62972      8.43603        -0.368198      0.125115     -0.801910
O       5.62965      9.42138      0.10727         0.168377     -0.722447     -0.712702
O       5.73925      9.43626     12.50094        -0.287122     -0.405616     -0.384705
O       5.56818      9.59009      4.27412         0.174432     -0.685740     -0.261236
O       5.56071      9.41710      8.46346        -0.138566     -0.190099     -0.259466
O       9.41691      1.74193      0.14675        -0.058199      0.433860     -0.962079
O       9.42021      1.91269     12.48972        -0.393637     -0.269789      0.897127
O       9.36152     13.10287      0.21885         0.230664      0.496065     -1.270369
O       9.45287     13.21226     12.56470        -0.397678     -0.290232     -1.264278
O       9.26719      1.87314      4.34788         0.373753      0.163642      0.175406
O       9.18281     13.12111      4.45849         0.549773     -0.308496     -0.679206
O       9.34330      1.90006      8.43773         0.438274     -0.043649     -1.021866
O       9.35156     13.16194      8.40395         0.028647     -0.072058      0.078227
O       9.44335      5.65154      0.23079        -0.416231      0.414293     -0.303016
O       9.45661      5.70018     12.56972        -0.172912      0.124077     -1.610466
O       9.35349      5.56512      4.35202         0.154914      0.305571     -0.415525
O       9.36635      5.47321      8.42945        -0.227754      0.777793      0.118281
O       9.37430      9.43326      0.22426        -0.059151     -0.411243     -0.772676
O       9.38615      9.42754     12.54970        -0.394768     -0.558135     -1.202011
O       9.39979      9.55353      4.26404        -0.694780     -0.649175      0.198346
O       9.48807      9.38955      8.41737        -0.527050     -0.379358      0.031184
O       3.77888      2.01571      2.28304        -1.371324      0.101973      0.117751
O       3.66531      1.74783     14.45139         0.883671     -0.304784      0.524683
O       3.70164     13.08319      2.14676         0.338333     -0.435732      0.519779
O       3.72925     13.32690     14.56290        -0.723186      0.358161      0.385146
O      14.97371      1.74697      2.29869        -0.074822     -0.319290     -0.118962
O      15.00220      2.07276     14.58493        -0.701936      0.382800      0.212291
O      14.91132     13.25855      2.28606         0.944656      0.288142      0.401918
O      14.96419     12.99295     14.65424        -0.123019     -0.203791      0.025226
O       3.75264      2.04866      6.30143         0.244420      0.663318      0.184991
O       3.72106     12.93309      6.53933        -0.344076     -0.187397     -0.045816
O      14.98063      1.54246      6.30379         0.798155     -0.007150      0.710369
O      14.97394     13.45101      6.19476         0.004223     -0.234987      0.655899
O       3.75079      2.00322     10.52483         0.324082      0.359452     -0.026126
O       3.71089     12.98134     10.33377         0.178594     -0.105342      0.493973
O       0.05890      1.72358     10.38756        -0.927369     -0.131354      0.379449
O       0.00647     13.33635     10.60152        -0.113314     -0.040900     -0.029043
O       3.69808      5.50186      2.27850        -0.138346     -0.085496      0.276956
O       3.74614      5.92111     14.54142         0.294265     -0.165377      0.328993
O      14.93188      5.85270      2.26600         0.501591      0.449894      0.051349
O       0.00460      5.45329     14.50601        -0.139966      0.047945      0.397259
O       3.72351      5.36354      6.32076         0.241975     -0.182631      0.370964
O      14.99477      5.95533      6.30955        -0.269686      0.035988      0.423762
O       3.73452      5.40752     10.44096        -0.024247      0.063114     -0.189743
O       0.00024      5.79948     10.42997        -0.183929      0.043678      0.112049
O       3.74130      9.61282      2.11639        -0.355758     -0.238232      0.239966
O       3.68798      9.26102     14.47295         0.580220     -0.343280      0.356116
O      14.94516      9.15858      2.26548         0.010757      0.162537      0.282200
O      14.97398      9.68253     14.67795        -0.647111     -0.188313     -0.029718
O       3.66469      9.62792      6.39243         0.577978      0.083364     -0.056530
O      14.95003      9.29530      6.26427        -0.939271     -1.088512      0.639649
O       3.68148      9.60423     10.58508         0.921982     -0.297826      0.120228
O      14.98394      9.32725     10.51513         0.060135     -0.397639     -0.093488
O       7.54181      1.80289      2.19652        -0.712022      0.080771      0.301141
O       7.52137      2.17193     14.66524         0.157703     -0.577680     -0.172998
O       7.48259     13.17215      2.29691        -0.339025      0.393192      0.362982
O       7.46615     13.06216     14.47978         0.134829      0.171068      0.093396
O       7.51524      1.56941      6.38444        -1.058032     -0.120192      0.521229
O       7.41303     13.45014      6.31386         0.035747     -0.077724      0.531836
O       7.49599      1.73314     10.28487         0.024063     -0.071635      0.711831
O       7.51231     13.28976     10.38458         0.302610      0.192673      0.639000
O       7.46839      5.77476      2.14062        -0.076650      0.163056      0.589449
O       7.49204      5.57130     14.45112        -0.596379     -0.343168      0.155323
O       7.47258      5.93693      6.29978         0.912517      0.384426      0.662678
O       7.47527      5.72161     10.55680         0.697013      0.416624      0.377456
O       7.51235      9.31243      2.21028        -0.592424     -0.129631      0.238973
O       7.48564      9.49516     14.49922        -0.215554      0.139109      0.467503
O       7.39506      9.03318      6.32307         0.782729      0.342049      0.378801
O       7.51141      9.34870     10.23534         0.120942     -0.344729      0.903453
O      11.23111      2.12383      2.35374         1.046043     -0.353698     -0.013614
O      11.26172      1.87693     14.61389        -1.119029     -0.583632      0.127616
O      11.15345     13.15092      2.55969         0.792098     -0.494738     -0.345516
O      11.24472     13.31557     14.52249         0.205087      0.043645      0.392945
O      11.27452      2.18727      6.28018        -0.105486     -0.239696      0.307650
O      11.20076     12.90698      6.40021         0.442796     -0.227534      0.179260
O      11.31659      2.06550     10.44906         0.301267     -0.122541      0.067181
O      11.29525     13.09830     10.40946        -0.924961     -0.205782      0.323632
O      11.20675      5.53551      2.26552         0.230797     -0.127598      0.393703
O      11.29147      5.87518     14.58850        -0.393469      0.125364     -0.045054
O      11.24784      5.41990      6.42775        -0.434774     -0.003240     -0.133995
O      11.23862      5.51328     10.53306        -0.051842      0.222300     -0.240189
O      11.22812      9.51007      2.34794         0.591712     -0.215945     -0.306741
O      11.21477      9.26602     14.53830         0.539063     -0.196173      0.384583
O      11.16012      9.65022      6.33140         0.471436     -0.232563      0.214471
O      11.29830      9.56040     10.47896        -1.953896     -0.019229      0.320495
O       1.57228      3.73757      2.20554         0.425007      0.108758     -0.018914
O       2.01868      3.74090     14.57079         0.130522      0.211627      0.630785
O       2.00872      0.07826      2.32378        -0.191299     -0.993101      0.411043
O       1.55927      0.03213     14.41678         0.522657     -1.028581      0.525832
O      13.32784      3.78637      2.22864        -0.274165     -0.596065      0.333114
O      13.03771      3.79464     14.56505        -0.430458     -0.019856      0.352328
O      12.95265     15.00765      2.24401        -0.119540      1.286714      0.291748
O      13.28653     14.99705     14.55755         0.062157      0.584135      0.470013
O       1.56213      3.76148      6.29746         0.012491     -0.654824      0.472246
O       2.08227      0.01109      6.34472         0.373507     -0.255984      0.368737
O      13.40479      3.75306      6.41492        -0.339940     -0.127108      0.053041
O      12.83206     14.95729      6.44233        -0.005697      0.078151     -0.144277
O       1.64105      3.73248     10.36630         0.350857      0.526492      0.340501
O       2.14057      0.00671     10.56503        -0.537439     -0.585564     -0.031143
O      13.29673      3.76344     10.31170         0.158092     -0.221536      0.593609
O      13.06839      0.04916     10.50257        -0.375357     -0.014692     -0.093536
O       2.08538      7.52109      2.27775        -0.607505      0.380367     -0.295523
O       1.64069      7.50936     14.51309        -0.336531     -0.227515      0.410361
O      12.96078      7.49358      2.24871        -0.359625      0.492409      0.278684
O      13.38142      7.49189     14.49775        -0.030863      0.962341      0.017515
O       2.08485      7.50094      6.21894        -0.159672      0.614792      0.632753
O      12.85165      7.48787      6.29088        -0.020278      1.011423      0.292832
O       2.07426      7.49759     10.57680        -0.314345      0.073866     -0.224508
O      13.10016      7.54000     10.39526        -0.625031     -1.419252      0.616366
O       1.59845     11.26699      2.21353         0.358070      0.263288      0.422723
O       2.05054     11.21681     14.58340        -0.162090      0.849132      0.035744
O      13.14929     11.25181      2.26495         0.276625     -0.495599      0.191318
O      12.95853     11.32258     14.48725        -0.303203     -0.917295      0.517361
O       1.60135     11.27202      6.32817         0.093970      0.433873      0.259829
O      13.35748     11.23662      6.32711        -0.059850      0.598939      0.353041
O       1.69510     11.27318     10.46072         0.027588      0.079404      0.561184
O      13.25960     11.27269     10.57884         0.159469      0.515650     -0.132395
O       5.70127      3.75056      2.41863         0.265797      0.449313      0.307573
O       5.40871      3.81282     14.61089        -0.095480      0.477445      0.391462
O       5.61821      0.04692      2.21780        -0.452933     -0.829675      0.111692
O       5.65163      0.04535     14.52787         0.689484      0.006179      0.225542
O       5.94913      3.74727      6.21541        -0.594186     -0.578250      0.523472
O       5.30735     14.99741      6.48425         0.225734      0.868066     -0.098748
O       5.73267      3.69472     10.44213         0.269524      0.575149      0.208756
O       5.52554     14.99589     10.51460        -0.486476     -0.292062      0.289529
O       5.52910      7.55884      2.35913        -0.343544     -0.037573     -0.362032
O       5.77878      7.46532     14.48128         0.303940     -0.132499      0.230199
O       5.22956      7.52008      6.17395         0.431404      0.502075      0.716160
O       5.46249      7.48735     10.40290         0.037624      0.791188      0.567746
O       5.85000     11.27250      2.05767        -0.353694      0.835523      0.589077
O       5.46273     11.26960     14.54468        -0.149051     -0.587046      0.180059
O       5.84890     11.33112      6.26393         0.133167     -0.474712      0.431210
O       5.77049     11.29616     10.41109         0.070631     -0.837129      0.577660
O       9.20936      3.72430      2.09744         0.071899      1.204758      0.674321
O       9.56940      3.81524     14.68322        -0.302419     -0.892526     -0.044718
O       9.48782      0.00155      2.27530         0.084301      0.330575     -0.168287
O       9.26743     14.97395     14.50048        -0.379391      1.581056      0.491180
O       9.06570      3.70976      6.29263        -0.010642      1.076260      0.496486
O       9.65301     14.98438      6.42299        -0.057282      0.183497      0.204606
O       9.19205      3.69590     10.54104         0.177396      1.426279      0.117201
O       9.53908      0.03466     10.50346         0.052584     -0.835048      0.287986
O       9.44549      7.53148      2.21842         0.246400     -0.759685      0.419179
O       9.21384      7.48850     14.65720        -0.203399      0.599321      0.056614
O       9.65150      7.50997      6.34370        -0.364741     -0.000895     -0.049577
O       9.47028      7.50507     10.36919         0.102105     -0.299564      0.423469
O       9.34834     11.30329      2.11843        -0.371314     -0.938399      0.590983
O       9.46730     11.27215     14.55175         0.184195     -0.991813      0.359412
O       9.13733     11.22680      6.50384        -0.587022     -0.823190     -0.158665
O       9.30797     11.30720     10.53892         0.174698     -0.642550     -0.141260
