  # total energy = -7881.00399372 
CRSYTAL
PRIMVEC
    15.6000000000000000    0.0000000000000000    0.0000000000000000
     0.0000000000000000   15.6000000000000000    0.0000000000000000
     0.0000000000000000    0.0000000000000000    17.640000000000000
PRESSURE
-4.32814 -4.56829 -2.36353 -0.06773 0.382712 -0.004704
PRIMCOORD
320 1
Pb       3.85957      3.83116      4.40135         0.259501      0.216835     -0.335380
Pb       3.99179      3.99954     17.58757        -0.216041     -0.712441     -0.065522
Pb       3.75272     15.45581      4.34471         0.408840     -0.390043      0.136086
Pb       3.78665     15.57112      0.05090         0.207615      0.290677     -0.594655
Pb      15.54356      3.84636      4.36475         0.055716     -0.104975     -0.512265
Pb       0.03810      3.98447     17.60818         0.238109     -0.519169     -0.397279
Pb      15.57685     15.53659      4.35395         0.080255      0.508137     -0.553726
Pb      15.40335     15.58573     17.61597         0.743645     -0.039588      0.077252
Pb       3.83112      4.01537      8.80636        -0.191391     -0.219045     -0.326283
Pb       3.88840     15.57959      8.75291        -0.025381      0.153600     -0.235420
Pb      15.55417      3.99069      8.83826         0.072323     -0.131069     -0.199892
Pb      15.52015     15.59652      8.64082         0.025524      0.193163      0.511116
Pb       3.95729      3.73592     13.27719        -0.062894      0.420400     -0.526125
Pb       3.88735     15.57053     13.15138        -0.058938      0.260374     -0.173737
Pb       0.02117      3.93015     13.16079         0.029468     -0.108520      0.000416
Pb      15.50320     15.57151     13.20477         0.191747      0.135308     -0.392368
Pb       3.95316      7.75924      4.44109         0.144276     -0.018604     -0.570051
Pb       4.00546      7.73417     17.58841        -0.008237      0.124946     -0.316153
Pb       0.04281      7.77937      4.31023         0.035775     -0.537035     -0.080449
Pb       0.08577      7.74225     17.49132         0.078969      0.424843     -0.068540
Pb       3.87979      7.81422      8.78968        -0.165519     -0.215478      0.152232
Pb      15.48691      7.78625      8.83174         0.702039      0.494171     -0.197439
Pb       3.91492      7.73725     13.18290         0.470464      0.019171     -0.373180
Pb       0.09687      7.76737     13.16449        -0.097370     -0.192045     -0.086766
Pb       3.90529     11.64482      4.33950         0.061131      0.353675      0.032187
Pb       3.84776     11.72397     17.58309        -0.042166     -0.637944      0.220806
Pb      15.59291     11.72165      4.29656         0.320809     -0.006434     -0.193942
Pb      15.59833     11.71351     17.44665         0.176591     -0.059766      0.396167
Pb       3.82256     11.76155      8.86907         0.077478     -0.158232     -0.401191
Pb      15.53532     11.80389      8.75830         0.125081     -0.544228      0.008182
Pb       3.85333     11.79061     13.15833        -0.091535     -0.512990      0.036482
Pb      15.45129     11.79025     13.17336         0.032553     -0.069384     -0.229459
Pb       7.75138      3.66912      4.43446         0.291976      0.149301     -0.164194
Pb       7.76922      3.93458      0.00489        -0.026304     -0.323350     -0.135801
Pb       7.61319     15.49146      4.42807         0.296737     -0.338009     -0.651990
Pb       7.68512      0.02844     17.56021         0.233287      0.072605      0.278961
Pb       7.58198      3.94720      8.83570         0.486223     -0.130979     -0.706693
Pb       7.74814      0.02818      8.81238         0.115235     -0.016150     -0.320760
Pb       7.89300      3.93261     13.26719        -0.276927      0.305117     -0.500324
Pb       7.81615      0.11195     13.13396         0.141158     -0.258538     -0.248940
Pb       7.86896      7.67092      4.38955        -0.169469      0.171539     -0.068446
Pb       7.77651      7.79672     17.62753         0.073663     -0.070487     -0.332724
Pb       7.70596      7.82760      8.79526        -0.020873      0.006135     -0.579920
Pb       7.78289      7.83443     13.17292        -0.341686     -0.301131     -0.024587
Pb       7.78339     11.58715      4.37293        -0.051745      0.135085     -0.355910
Pb       7.77282     11.66065     17.50657         0.489759      0.063108      0.111539
Pb       7.80281     11.76004      8.72723        -0.316566     -0.184509     -0.335195
Pb       7.74064     11.81405     13.11718         0.277285     -0.299500     -0.037359
Pb      11.76416      3.80832      4.33544        -0.434554      0.120388     -0.036411
Pb      11.68687      3.81139      0.02924        -0.301473      0.061191     -0.298406
Pb      11.61424     15.45546      4.38956        -0.289330      0.083390     -0.791409
Pb      11.57484     15.50345      0.01541        -0.173783      0.207865      0.117829
Pb      11.63096      3.92285      8.75076        -0.211532      0.117190     -0.229928
Pb      11.76411      0.01416      8.74254        -0.585955     -0.409125     -0.091360
Pb      11.77509      3.92192     13.14410        -0.075553     -0.345081     -0.471147
Pb      11.65067      0.00485     13.12815        -0.046638      0.229802     -0.075361
Pb      11.68261      7.73539      4.32870        -0.023542     -0.483109      0.222549
Pb      11.63837      7.71603     17.56367        -0.152877     -0.071482     -0.115612
Pb      11.63343      7.79822      8.75161        -0.152155      0.113104     -0.559064
Pb      11.68248      7.74794     13.13036        -0.267034      0.270927      0.164899
Pb      11.69199     11.49295      4.28138        -0.433863      0.501695      0.005032
Pb      11.66413     11.63828     17.51636        -0.093524      0.393055      0.006091
Pb      11.69247     11.74301      8.82410        -0.012053     -0.038435     -0.576387
Pb      11.61554     11.69606     13.18800         0.031127     -0.226767     -0.495897
Ti       2.06498      1.91002      2.42618        -1.394732      0.288872     -0.089096
Ti       1.94285      1.89122     15.59768         0.424140      0.202980      1.697918
Ti       1.90764     13.62829      2.25255         0.862458     -0.269054     -0.086449
Ti       2.07282     13.60635     15.55991        -0.526131      0.275920      1.285217
Ti      13.68611      1.90479      2.31426        -0.032498     -0.248567      1.335841
Ti      13.62861      1.96851     15.74114         0.456858     -0.385073     -1.325196
Ti      13.63063     13.57981      2.33166        -0.750142      0.262770      0.982425
Ti      13.71666     13.70262     15.51379        -0.076908     -0.812414      0.856226
Ti       1.86389      1.92491      6.77977         0.141516      0.262004     -0.433253
Ti       1.90581     13.71949      6.86408         0.946310     -1.089420     -0.989379
Ti      13.57292      1.92730      6.75765         0.483234      0.459430     -1.075718
Ti      13.58881     13.61801      6.70237        -0.692240      0.165496      1.362391
Ti       1.92903      1.92358     11.17555         1.213208     -0.335229     -0.848271
Ti       1.96692     13.60109     11.11457        -1.090344      0.393849      0.355108
Ti      13.66425      1.93522     11.18785        -0.454607     -0.125157      2.030396
Ti      13.57800     13.67553     11.12257         0.254363      0.135702      0.751597
Ti       2.04822      5.78722      2.25397        -0.173006      0.118166      0.642118
Ti       1.96255      5.79373     15.53909         0.319747     -0.518202     -1.152249
Ti      13.67759      5.77630      2.27200        -0.054671      0.269356      1.403763
Ti      13.66330      5.85421     15.61279        -0.596755     -0.715331     -0.493648
Ti       1.83891      5.83728      6.78579         0.917795      0.522664      0.571260
Ti      13.68092      5.83361      6.81336        -0.984668      0.001808     -0.729314
Ti       2.06071      5.80249     11.18724        -0.327404     -0.232748     -1.107311
Ti      13.68054      5.92243     11.20185        -0.124672     -1.351450     -0.068312
Ti       1.95335      9.69516      2.37409         0.323969      0.582269     -0.356686
Ti       1.96316      9.69627     15.50460         0.176463      0.814980      1.064579
Ti      13.69254      9.63838      2.49497        -0.482440      0.701259      0.428368
Ti      13.66283      9.70791     15.66087        -0.022210      0.619333     -0.755445
Ti       2.02510      9.78737      6.86257        -0.724797     -0.090443     -0.624762
Ti      13.69534      9.70873      6.75868        -0.665631     -0.074403      0.495275
Ti       1.97806      9.70353     11.25496         0.008104      0.014911     -0.390523
Ti      13.70533      9.70185     11.23379        -0.729036      0.523087      0.513909
Ti       5.81548      1.83678      2.43666         0.968610      0.483415     -2.299582
Ti       5.81469      1.88455     15.60042        -0.141844      0.171994      1.281561
Ti       5.83300     13.53680      2.26303        -0.018586      0.016562      0.208362
Ti       5.91624     13.60728     15.63481        -0.753920      0.193342      0.591809
Ti       5.76317      1.88587      6.83165         0.470856      0.904515     -0.560061
Ti       5.82581     13.62416      6.84383        -0.175711     -0.124395     -1.240136
Ti       5.89074      1.97143     11.19658        -0.228485      0.158179      0.655691
Ti       5.79836     13.65386     11.18566         0.633456      0.814821     -1.100353
Ti       5.90107      5.74599      2.35067        -0.474521      0.085928      0.283872
Ti       5.89697      5.77704     15.61284         0.284764      0.526418     -2.351925
Ti       5.77184      5.81601      6.68049         1.401855      0.112461     -0.865635
Ti       5.90995      5.85137     11.10364        -0.314390      0.004077      1.179052
Ti       5.76811      9.62891      2.37902         1.437300      0.479331     -0.230571
Ti       5.83619      9.72810     15.60334         0.015053     -0.215621     -1.074047
Ti       5.77760      9.76451      6.83207         0.825067     -0.108724      0.255988
Ti       5.83827      9.77788     11.22850        -0.303896     -1.109657     -0.397949
Ti       9.71896      1.92812      2.42503         0.074345     -0.647772     -0.331969
Ti       9.74571      1.88338     15.66587        -0.129194      0.498389     -0.539238
Ti       9.66344     13.62494      2.32766         0.664392      0.011662     -0.569488
Ti       9.82209     13.69639     15.54528        -1.395948     -0.627815      1.455880
Ti       9.69821      1.97767      6.79317        -0.123175      0.120730     -1.183893
Ti       9.72204     13.70191      6.77077         0.155666     -0.182764      0.969685
Ti       9.73728      1.91829     11.09038         0.889423     -0.038245      2.481395
Ti       9.70576     13.62255     11.09370         0.473295      0.669568      0.702098
Ti       9.75805      5.79729      2.34210         0.080181     -0.279676     -0.466629
Ti       9.79747      5.74316     15.60191        -0.595606      0.204098      0.617352
Ti       9.68714      5.83717      6.81910        -0.335073      0.207703      0.376737
Ti       9.70831      5.75820     11.15824         0.623260      0.141130     -0.244567
Ti       9.70981      9.67238      2.32974        -0.454867      0.375041     -0.029445
Ti       9.75815      9.66010     15.61790        -0.324043      0.722162     -1.286233
Ti       9.71121      9.80497      6.84005         0.037610     -1.190217     -0.452038
Ti       9.72946      9.64811     11.23341         0.497169      0.323187      1.968304
O       2.06960      1.92597      0.71594         0.036625      0.015088     -0.940373
O       2.01637      2.06984     13.90752         0.010850     -0.122537     -1.890993
O       2.00370     13.64445      0.49694        -0.305536      0.073301      0.130646
O       2.22705     13.56594     13.83224        -0.321790     -0.150700     -0.867856
O      13.72165      1.94071      0.58929        -0.232025      0.324589     -1.157071
O      13.78847      1.87887     13.96503        -0.304113      0.180615      0.480247
O      13.67680     13.51568      0.62982        -0.040476     -0.024096     -1.102015
O      13.72801     13.67874     13.77190        -0.108343      0.007238     -0.029319
O       1.82501      1.85875      5.02084         0.333205      0.167108     -0.378362
O       1.97396     13.82529      5.10224        -0.528696     -0.440054     -0.279081
O      13.65740      1.99268      4.98823        -0.236861     -0.302330      0.020125
O      13.56441     13.76734      4.97183         0.329327     -0.285366     -0.591931
O       1.99004      1.89363      9.38359        -0.137808      0.014849      0.435813
O       1.98321     13.56667      9.34724        -0.095846      0.499427     -0.060242
O      13.55782      1.92375      9.49853         0.262110      0.043737     -1.882277
O      13.56297     13.63442      9.37047         0.115200      0.092122     -0.365942
O       2.03258      5.77037      0.49909        -0.055986      0.365597     -0.368594
O       1.94740      5.65773     13.72910         0.009066      0.539665      0.648281
O      13.49996      5.73357      0.57138         0.190636      0.090047     -1.551673
O      13.65795      5.78384     13.85325         0.010978     -0.085517     -0.467612
O       1.76882      5.82548      5.04620         0.191031      0.135046     -0.155435
O      13.73965      5.85592      5.06007         0.242616     -0.060972      0.075769
O       2.07263      5.77131      9.32905        -0.247865      0.056441      0.983945
O      13.75345      5.84611      9.45602        -0.095029     -0.020931     -0.831270
O       1.89535      9.68400      0.63107         0.112774     -0.315932      0.226927
O       1.90641      9.83125     13.79331        -0.030726     -0.182019     -1.198121
O      13.71205      9.87871      0.83685         0.014168     -0.448056     -2.337075
O      13.70274      9.83797     13.93396        -0.140748     -0.331862     -0.708359
O       2.28880      9.91624      5.09098        -0.897154     -0.548845      0.491470
O      13.60316      9.73244      5.02885         0.392031      0.038521     -0.846696
O       1.89727      9.63896      9.53359         0.298732     -0.182696     -0.921073
O      13.68909      9.68786      9.52027        -0.143306      0.077805     -0.918105
O       5.87799      1.95501      0.63527        -0.263139     -0.361419      0.634157
O       5.77427      1.90393     13.87078         0.213228      0.215986     -1.238491
O       5.84483     13.45556      0.49544         0.072962      0.286534      0.364253
O       5.83018     13.66632     13.88169        -0.176922     -0.193610     -0.771714
O       5.89091      1.97945      5.06962         0.048594     -0.363134     -0.539035
O       5.91685     13.68159      5.06102        -0.107543      0.061044      0.229018
O       5.95603      1.91296      9.48548        -0.294902     -0.186678     -2.189400
O       5.85009     13.67317      9.41618        -0.225798      0.105998      0.020832
O       5.79944      5.73901      0.57851         0.026043      0.502782     -0.869735
O       5.96309      5.77792     13.73278        -0.190803     -0.093825      1.748371
O       5.80734      5.86253      4.86506        -0.126545     -0.232051      0.780873
O       5.93878      5.87749      9.34857        -0.084243     -0.155765     -0.445382
O       5.76972      9.55918      0.61244         0.152946      0.189180     -0.558128
O       5.85893      9.65944     13.82669         0.065861      0.206186      0.217631
O       5.74210      9.77602      5.09360        -0.212999      0.157787     -0.516777
O       5.87372      9.60880      9.49012        -0.099839      0.636052     -0.452643
O       9.81358      1.87393      0.65946        -0.261190      0.267960     -0.161278
O       9.81897      1.83785     13.89987        -0.186108      0.195800     -0.027810
O       9.70758     13.66346      0.54725        -0.006532     -0.006946      0.510700
O       9.82597     13.75111     13.82637        -0.496722     -0.155238     -1.008420
O       9.71244      2.11861      4.98403        -0.245872     -0.438196      0.531433
O       9.73027     13.62057      5.06408         0.024028      0.117545     -1.473264
O       9.78746      1.88792      9.42122         0.183553     -0.004196     -2.642424
O       9.75325     13.74418      9.36230        -0.148984     -0.634420     -0.656450
O       9.77136      5.89323      0.54471         0.242159     -0.094196      0.342445
O       9.76486      5.64444     13.87019        -0.102037     -0.100108     -1.108957
O       9.76996      5.87719      5.09273        -0.194572     -0.132598     -0.404003
O       9.65066      5.79497      9.42483         0.109094      0.155478     -0.872804
O       9.62617      9.55847      0.55609         0.411481     -0.062366      0.203802
O       9.90787      9.71045     13.82524        -0.321982      0.130241      0.442224
O       9.65523      9.78309      5.11360         0.023080     -0.155780     -1.338426
O       9.87023      9.59653      9.56135        -0.349937      0.360467     -2.111982
O       3.94544      1.86168      2.87412        -0.297977      0.324800      0.413215
O       3.89268      1.94888     16.03966         0.094120      0.334886      0.033512
O       3.85206     13.64467      2.68252         0.585410     -0.136721      0.098349
O       3.88782     13.45533     16.15476         0.667793      1.153356     -0.788986
O      15.58943      1.90673      2.75573         0.151606      0.506302      0.249646
O       0.06423      1.80561     16.14656        -0.322402      0.469247     -0.051646
O       0.05013     13.65459      2.75608        -0.960294     -0.099455      0.243962
O       0.03204     13.61844     15.88932        -0.212418      0.315016     -0.051790
O       3.88884      1.87510      6.99843        -0.542237     -0.381935      0.839670
O       3.86363     13.62608      7.08902        -0.195658      0.479929      0.986636
O      15.52280      1.84256      7.02882         0.758314      0.042403      0.952104
O      15.53137     13.62933      7.25292         0.170146     -0.082261     -0.458425
O       3.98266      2.00050     11.61413        -0.894909     -0.320137      0.255391
O       3.85872     13.63673     11.52732         0.563049      0.100289      0.210780
O       0.14441      1.84220     11.65164        -1.313977      0.397778     -0.171788
O      15.57390     13.69109     11.58209         0.900702     -0.259721     -0.071704
O       3.96100      5.89944      2.63041        -1.058437     -0.347734      0.630745
O       3.84771      5.80181     15.91972         0.543332      0.334570      0.164799
O       0.09144      5.74289      2.46661        -0.714816      0.449816      0.734935
O      15.52921      5.85120     15.96040         1.014530      0.091872      0.494895
O       3.96873      5.79983      7.08384        -1.432502      0.287990      0.296292
O      15.57894      5.88899      7.28717         0.413919     -0.406644      0.073560
O       3.98645      5.82283     11.45082        -0.116133      0.287973      0.361458
O       0.01596      5.83211     11.47732         0.229009      0.221606      0.560345
O       3.98439      9.81077      2.83472        -1.720881     -0.046572     -0.133640
O       3.87081      9.75840     15.86178         0.407011     -0.358844      0.468692
O       0.04024      9.79334      2.91654         0.267468     -0.545409      0.087583
O      15.56545      9.74500     16.02576         0.302056     -0.468033      0.252767
O       3.83118      9.67870      7.41366         1.001788      0.495048     -0.191647
O       0.01162      9.73464      7.20155        -0.372436      0.309087     -0.191191
O       3.89923      9.59319     11.58166         0.325039      0.439728      0.401666
O       0.04534      9.60366     11.55660        -1.027014      0.314520      0.741249
O       7.73285      1.89807      2.77396         0.193514      0.017667      0.729823
O       7.80558      1.88592     15.87713        -0.457679      0.114405      0.546433
O       7.84356     13.61953      2.78935        -0.901322     -0.105604      0.063834
O       7.72154     13.74024     15.95354         1.052585     -0.285420      0.127308
O       7.82519      2.00479      7.15270        -0.616718     -0.681015      0.460383
O       7.77869     13.61363      7.16402         0.303811     -0.015688      0.583754
O       7.89723      1.98400     11.49562        -0.663996     -0.593801      0.877090
O       7.73878     13.65337     11.52354         0.519934     -0.094215      0.393951
O       7.77031      5.96235      2.54806         0.330451     -0.194728      0.660626
O       7.77016      5.70995     15.99117         0.385548      0.714514      0.183489
O       7.73523      5.73613      7.05931         0.042069      0.142615      0.449051
O       7.82887      5.84540     11.59819        -0.080564     -0.164222      0.175754
O       7.84678      9.67880      2.78610        -0.485542     -0.394057      0.249355
O       7.78540      9.73576     15.94949         0.069378     -0.519041      0.313008
O       7.70251      9.81896      7.16628         0.092095      0.340551      0.761388
O       7.79080      9.65377     11.60413         0.617514      0.823659      0.192070
O      11.61272      1.91578      2.75191         1.035622      0.333205      0.346674
O      11.69372      1.82639     16.06074         0.442137      0.823545      0.298360
O      11.68256     13.61371      2.69057         0.332658      0.218369      0.452803
O      11.60443     13.58646     15.89709         1.976911      0.166521      0.475290
O      11.69276      1.99374      7.07046         0.045241     -0.163358      0.706062
O      11.64496     13.74880      7.13148         0.885262     -0.747697      0.268813
O      11.71836      1.87720     11.68086         0.370547      0.640308     -0.255819
O      11.71648     13.66542     11.46924        -0.616521     -0.250728      0.335648
O      11.72477      5.75860      2.75655        -0.392774      0.350362      0.039208
O      11.67150      5.78884     15.91637         0.374692     -0.131704      0.597089
O      11.75326      5.95633      7.15637        -0.514817     -0.773591      0.572855
O      11.70116      5.78815     11.40267         0.490593     -0.310914      0.944492
O      11.65978      9.63836      2.77802        -0.034644      0.010299      0.253631
O      11.68467      9.74303     16.07532         0.378087      0.007773      0.236026
O      11.62044      9.65994      7.04967         1.146538      0.094419      1.028661
O      11.75388      9.74805     11.61648        -0.092994      0.099277      0.436629
O       2.03454      3.90947      2.79669         0.169267     -0.259902      0.194074
O       1.91725      3.95279     15.93764        -0.421291     -0.650207      0.588958
O       2.02812      0.00386      2.71077        -0.466881     -0.625726      0.394476
O       2.07206     15.57498     15.88228         0.059073     -0.576865      0.258202
O      13.56446      3.93067      2.79126         0.783704     -0.957960     -0.110786
O      13.75205      3.84479     16.02128        -0.541661      0.225722      0.344076
O      13.70563      0.02684      2.53250        -0.323296     -0.947793      0.771162
O      13.63049     15.56760     16.08963         0.011344     -0.778863     -0.066626
O       1.94992      3.84481      7.12113        -0.241228      0.407460      0.330565
O       1.92404     15.55503      7.15597        -0.133913      0.861433      0.829541
O      13.72240      3.86117      7.11414        -0.140530      0.376110      0.718470
O      13.64151     15.54736      7.21882        -0.211671      0.433024     -0.243498
O       2.04844      3.92607     11.43734        -0.444015     -0.860998      0.561728
O       1.98872     15.55077     11.63780         0.379124      0.057151     -0.241810
O      13.80714      3.82513     11.59836        -0.659197      0.275552      0.102149
O      13.59813      0.00695     11.65134         0.762988     -0.000687     -0.125728
O       2.01436      7.80590      2.81909        -0.324823     -0.103626     -0.072897
O       1.90842      7.80409     15.82389        -0.204711     -0.530843      0.448847
O      13.63073      7.72317      2.73306         0.623981     -0.173469      0.313500
O      13.60814      7.73016     15.99078         0.043939      0.768051      0.414144
O       1.97254      7.78558      7.25996        -0.199107     -0.423016     -0.458298
O      13.65968      7.81332      7.16381         0.341747      0.146860      0.389896
O       1.95954      7.70069     11.73327         0.235714      0.040004     -0.101041
O      13.54671      7.74580     11.65316         0.799461      0.729309     -0.065799
O       1.93235     11.73186      2.67822        -0.014852     -0.522200      0.467110
O       2.00778     11.66123     16.02374        -0.661479     -0.131985     -0.188885
O      13.58782     11.61884      2.85221         0.581940      0.906042      0.439456
O      13.73986     11.70752     15.95438        -0.802734      0.243057      0.295136
O       1.98566     11.67453      7.30149        -0.396105      0.263637      0.061925
O      13.52324     11.73780      7.24176         0.413097     -0.619130     -0.318684
O       2.04708     11.63085     11.40862        -0.274346      1.017107      0.794548
O      13.66762     11.80163     11.59198         0.214861     -1.453859      0.171603
O       5.83930      3.84232      2.58060        -0.152898      0.286544      1.206136
O       5.85560      3.93126     16.02997        -0.208268     -0.996939     -0.002796
O       5.87465     15.46671      2.58292        -0.022263      0.375088      0.756777
O       5.81121      0.02129     16.04464        -0.365498     -0.594240     -0.001711
O       5.74383      3.84327      7.12259         0.381855      0.201256      0.511140
O       5.87453     15.52830      7.23808        -0.067840      1.097292      0.345398
O       5.94839      3.86527     11.40962         0.051759      1.021820      0.615618
O       5.88759      0.05795     11.51995        -0.114530     -1.109473      0.696454
O       5.74315      7.80749      2.75089         0.351371     -0.332919      0.401651
O       5.84969      7.72206     16.00432        -0.156018      0.262706      0.277299
O       5.93563      7.83875      7.07291        -0.678842     -0.752253      0.419724
O       5.91916      7.85035     11.52852        -0.093622     -1.360583      0.627644
O       5.94154     11.69051      2.82102        -0.303860     -0.194825     -0.197200
O       5.93752     11.65752     15.98435        -0.397797     -0.184543     -0.126855
O       5.73090     11.76204      7.22312         0.275367     -1.013727      0.472608
O       5.81772     11.74854     11.48277         0.112379     -0.463218      0.683469
O       9.62605      3.91242      2.74578         0.161253     -0.156035      0.101621
O       9.66541      3.86934     16.08802         0.720823     -0.450270      0.052144
O       9.70188     15.56109      2.74318         0.224930     -0.085670      0.549607
O       9.75306      0.02709     16.13729        -0.108510     -0.890616     -0.292766
O       9.69364      3.86118      7.24103         0.790937      0.662917      0.338917
O       9.83380     15.58779      7.11932        -0.715644      0.801907      0.126753
O       9.80819      3.84052     11.41578        -0.024674      0.398669      0.863580
O       9.81090     15.52474     11.48270        -0.524559      0.407830      0.608219
O       9.76264      7.63011      2.91844         0.099712      1.284881     -0.280121
O       9.75283      7.78498     15.87938        -0.012674     -0.699945      0.556300
O       9.60319      7.80290      7.25317         0.273758     -0.521581      0.245044
O       9.83698      7.71182     11.63853        -0.325813      0.501945      0.119133
O       9.71191     11.60096      2.59182         0.366197     -0.002963      0.553435
O       9.65679     11.69719     15.97894         0.271306      0.096121      0.050753
O       9.75129     11.64120      7.20404         0.030637      1.369153      0.824576
O       9.77453     11.73439     11.62105        -0.320880     -0.473918     -0.077645
