  # total energy = -7887.11989242 
CRSYTAL
PRIMVEC
    15.3600000000000000    0.0000000000000000    0.0000000000000000
     0.0000000000000000   15.3600000000000000    0.0000000000000000
     0.0000000000000000    0.0000000000000000    17.440000000000000
PRESSURE
0.307595 0.255889 -0.712164 -0.114395 -0.025758 -0.006052
PRIMCOORD
320 1
Pb       3.81603      3.82329      4.34315        -0.030286      0.228265     -0.242398
Pb       3.85015      3.82075     17.39874        -0.195103     -0.151869     -0.220572
Pb       3.82450     15.34567      4.32824        -0.254863     -0.242242     -0.079442
Pb       3.83830     15.35246     17.41248        -0.167711     -0.043540     -0.402414
Pb      15.33269      3.82124      4.34183         0.144856     -0.043284     -0.063668
Pb      15.35542      3.82103     17.42633         0.158573      0.114067     -0.356513
Pb      15.34595     15.33690      4.33200        -0.132862      0.013268     -0.205395
Pb      15.30466     15.33759     17.41651         0.136537      0.000134     -0.382368
Pb       3.81836      3.83947      8.67232        -0.197945     -0.174839     -0.365099
Pb       3.82084     15.33644      8.71499         0.136902      0.159170     -0.302794
Pb      15.29393      3.82712      8.67842         0.322450      0.148639     -0.375062
Pb      15.33209      0.01315      8.69034        -0.196153     -0.045530     -0.680092
Pb       3.83434      3.81313     13.03836        -0.192877     -0.197098     -0.509556
Pb       3.81616     15.32110     13.04164         0.112930     -0.074703      0.026160
Pb      15.33405      3.80114     13.05874        -0.056365      0.100172     -0.293121
Pb      15.34257     15.35297     13.02463        -0.059962     -0.159440      0.227182
Pb       3.83361      7.67368      4.31863         0.017521     -0.413332     -0.155252
Pb       3.80902      7.66352     17.42954        -0.153180     -0.071593     -0.702407
Pb       0.01074      7.66069      4.32647         0.070654      0.130209     -0.439829
Pb      15.34398      7.68893     17.39748        -0.187153     -0.222242     -0.105390
Pb       3.84614      7.64791      8.69184        -0.032714      0.155218     -0.251797
Pb      15.33872      7.65501      8.69017        -0.073566     -0.206680     -0.244615
Pb       3.82599      7.65962     13.05932        -0.462692      0.158278     -0.697119
Pb      15.35313      7.66697     13.05626         0.085953     -0.083194     -0.423910
Pb       3.79659     11.49113      4.32699         0.158293      0.237101     -0.299103
Pb       3.85134     11.47002     17.40187        -0.152958      0.226953     -0.648000
Pb       0.00662     11.52397      4.30659        -0.039818     -0.071835     -0.551719
Pb      15.33430     11.49328     17.40437         0.096683     -0.077546     -0.312090
Pb       3.81369     11.52097      8.70066         0.169096     -0.215246     -0.449773
Pb      15.34548     11.47978      8.68974        -0.087989      0.065474     -0.673207
Pb       3.84478     11.50545     13.04711        -0.130391     -0.111760     -0.565311
Pb      15.35649     11.49583     13.06609         0.344037      0.064040     -0.291555
Pb       7.66477      3.80051      4.34384        -0.151553      0.271170     -0.367429
Pb       7.68151      3.84027     17.38313        -0.280612     -0.325498     -0.311569
Pb       7.65814     15.35844      4.32220         0.419284     -0.133820      0.147483
Pb       7.62215     15.34184     17.40283         0.351503      0.124297     -0.771705
Pb       7.66392      3.82060      8.69433        -0.271225     -0.004669     -0.565026
Pb       7.67024     15.32561      8.68586        -0.156527      0.166854     -0.406388
Pb       7.68575      3.84239     13.08217         0.283292     -0.219223     -0.246112
Pb       7.67222      0.00118     13.04789        -0.076123      0.156308     -0.201502
Pb       7.64152      7.64818      4.32057         0.181784     -0.106539     -0.226058
Pb       7.66303      7.65639     17.41247         0.074800     -0.019898      0.093110
Pb       7.65046      7.68915      8.67846         0.011299      0.019995     -0.153330
Pb       7.65483      7.64984     13.04639         0.482589      0.318838     -0.773649
Pb       7.65550     11.49111      4.32985         0.320673     -0.373465     -0.213164
Pb       7.64955     11.52461     17.39224         0.142683      0.176113     -0.266484
Pb       7.67614     11.49796      8.69494        -0.001877     -0.247724     -0.310325
Pb       7.69679     11.53086     13.06228        -0.201046     -0.447167     -0.632883
Pb      11.51928      3.80537      4.33825        -0.186867     -0.028388     -0.562116
Pb      11.50114      3.82271     17.41925        -0.035817      0.051631     -0.196588
Pb      11.50556     15.35648      4.31097         0.269002     -0.294525     -0.245074
Pb      11.49696     15.33912     17.37507        -0.373515      0.015662      0.136766
Pb      11.51705      3.85659      8.68830         0.045350      0.151851     -0.242676
Pb      11.50045     15.33060      8.68827         0.192444     -0.207897     -0.730098
Pb      11.50642      3.80227     13.07667        -0.271358      0.389305     -0.296253
Pb      11.48289     15.34008     13.04241         0.070997     -0.029508      0.006085
Pb      11.51877      7.66738      4.31826        -0.440839      0.061750     -0.899888
Pb      11.48668      7.65104     17.41880         0.072350     -0.196011     -0.112066
Pb      11.51274      7.66385      8.68598        -0.080170     -0.449151      0.021252
Pb      11.48472      7.67182     13.03961         0.019406     -0.358557     -0.299341
Pb      11.51503     11.48157      4.34383        -0.372689      0.236362     -0.538444
Pb      11.48492     11.49864     17.40569        -0.102504      0.013673     -0.038317
Pb      11.49939     11.49898      8.71652        -0.167567      0.330753     -0.486977
Pb      11.50102     11.50275     13.03091        -0.314770     -0.182044     -0.132211
Ti       1.93511      1.93454      2.32679        -0.454622     -0.419043     -1.106322
Ti       1.93877      1.91261     15.35461        -0.072616     -0.313869      2.874788
Ti       1.89680     13.42081      2.25755        -0.029944      0.090991     -0.388002
Ti       1.88741     13.45874     15.40412         0.090765     -0.458036     -0.820951
Ti      13.47163      1.90574      2.33732        -0.562805     -0.332351      0.085634
Ti      13.43353      1.93763     15.39625         0.161579     -0.408656     -0.918084
Ti      13.41755     13.38078      2.30967        -0.547114      0.489328     -0.139514
Ti      13.39306     13.44008     15.35412         0.533362     -0.113844      0.199443
Ti       1.92153      1.86917      6.66561        -0.632645      1.022424     -0.197485
Ti       1.90264     13.39979      6.67984        -0.711698      0.314597     -0.063994
Ti      13.43020      1.92631      6.66899         0.505349     -0.732579     -0.511860
Ti      13.40297     13.39232      6.65074        -0.003652      0.923377      0.261355
Ti       1.85435      1.86407     10.99936         0.590999      1.204896      0.397906
Ti       1.88304     13.43025     10.99637         0.377909     -0.501670      1.030011
Ti      13.38419      1.86590     11.03900         0.762687      0.515161     -0.665395
Ti      13.42149     13.38107     11.03667        -0.439065      0.477854      0.574249
Ti       1.85851      5.74590      2.31717         0.555949      0.049056      0.258421
Ti       1.88958      5.73056     15.35330        -0.336475     -0.048277      0.482657
Ti      13.41709      5.74741      2.31861        -0.269573      0.051127     -0.813011
Ti      13.41948      5.72699     15.35992        -0.332959      0.346120      1.315532
Ti       1.88426      5.80002      6.62294        -0.614488     -1.244894      0.283245
Ti      13.38511      5.78549      6.63943         0.868473     -0.676829      0.331592
Ti       1.89354      5.73646     11.01062        -0.266603     -0.012096      1.186518
Ti      13.46133      5.69101     11.06556        -0.968462      0.502545     -0.487122
Ti       1.94788      9.58898      2.28550        -1.000826     -0.518624      1.032896
Ti       1.87913      9.56948     15.35711         0.231412      0.136764      0.533306
Ti      13.43647      9.56018      2.30368         0.171308      0.322658     -0.053830
Ti      13.35797      9.57961     15.37883         0.404243     -0.419922      1.428198
Ti       1.87285      9.55240      6.63153         0.398878      0.339284      1.090451
Ti      13.35092      9.61149      6.63564         1.341988     -0.019416      0.296494
Ti       1.87210      9.59846     10.96882         0.790703     -0.541391      4.103494
Ti      13.41316      9.55782     11.02690         0.062355     -0.642277     -0.455033
Ti       5.71500      1.83558      2.30376         0.362050      1.396496     -0.484775
Ti       5.71127      1.87229     15.35975         0.627385      0.301928     -0.512874
Ti       5.73620     13.40917      2.34042         0.159063     -0.665478     -0.835651
Ti       5.71950     13.39924     15.33452        -0.021480      0.179170      1.138762
Ti       5.69303      1.89747      6.64728         0.800485      0.188825      0.668606
Ti       5.68912     13.42107      6.64994         0.436694      0.084609     -0.450311
Ti       5.70276      1.90047     11.05899         0.895664     -0.258285     -0.989462
Ti       5.72550     13.43631     11.00671         0.014006     -0.787207      0.735032
Ti       5.73336      5.71100      2.26894        -0.113946     -0.150383      0.311141
Ti       5.69065      5.76460     15.36495         0.289711     -0.890528      2.531320
Ti       5.69909      5.79604      6.70509         0.860148     -0.659973     -0.811392
Ti       5.72304      5.72464     11.05796         0.410678      0.184534     -0.418723
Ti       5.69559      9.55202      2.29891         1.697870      0.231605      0.885645
Ti       5.76524      9.55802     15.35793        -1.070038      0.435847      1.462038
Ti       5.72928      9.59674      6.62177         0.342283     -0.418579      0.766427
Ti       5.68620      9.51067     11.02831         1.084877      1.350467      0.017854
Ti       9.58250      1.88642      2.37551         0.541202      0.128959     -1.650272
Ti       9.58873      1.94303     15.39271        -0.531481     -0.640977      0.965063
Ti       9.55785     13.39912      2.32761         0.649443     -0.207064     -1.085837
Ti       9.58423     13.39486     15.36067        -0.806685      0.528178      1.037007
Ti       9.56171      1.91358      6.65849        -0.097129     -0.430622     -0.444202
Ti       9.51712     13.38309      6.68169         0.974743      0.350944     -0.015421
Ti       9.58269      1.91111     11.00678        -0.376432      0.150780      1.780719
Ti       9.55525     13.41638     11.04584        -0.028555      0.138476     -0.973785
Ti       9.54685      5.72394      2.26136         0.063758      0.662986      0.405670
Ti       9.52694      5.74671     15.39192         1.003443     -0.236945     -1.032198
Ti       9.56191      5.72616      6.64027        -0.571887     -0.060467      0.764836
Ti       9.54482      5.72905     11.04388         1.739800      0.056561      0.146942
Ti       9.57223      9.58076      2.30178        -0.022230     -0.272263      0.165396
Ti       9.53919      9.52912     15.37651         0.467682      1.025255     -0.623558
Ti       9.60998      9.55467      6.67584        -1.121893      0.579231     -1.141752
Ti       9.60573      9.53441     10.96621        -1.105386      0.284946      1.089088
O       1.98061      1.86767      0.50374        -0.281916      0.077189      1.233111
O       1.98221      1.84032     13.67556        -0.035299      0.185189     -2.638818
O       1.86432     13.44479      0.46834         0.069168     -0.085470      0.542313
O       1.87170     13.51486     13.57161         0.008852     -0.428557      0.802182
O      13.45765      1.97933      0.58229         0.109438     -0.292498     -0.668544
O      13.48310      1.89074     13.56953        -0.309648      0.006238      1.269481
O      13.37573     13.38164      0.52985         0.275494      0.173442      0.306816
O      13.49385     13.48184     13.57758        -0.265807     -0.263202      0.119183
O       1.86590      1.97164      4.88080         0.306592     -0.439248     -0.004831
O       1.86658     13.40443      4.90397         0.413429     -0.173779     -0.073612
O      13.47239      1.82808      4.84750        -0.179049      0.462330      0.937727
O      13.36248     13.44914      4.89092         0.397278     -0.282393     -0.338037
O       1.97441      1.93374      9.26540        -0.211914     -0.278672     -0.446307
O       1.88389     13.47850      9.24730         0.232053     -0.397158     -0.280460
O      13.50281      1.94533      9.20521        -0.511175     -0.210244      1.366536
O      13.36365     13.48791      9.30193         0.085008     -0.533917     -0.428343
O       1.87594      5.65844      0.57284         0.012705      0.382152     -0.434250
O       1.87371      5.75776     13.58155         0.329984      0.091145     -0.201158
O      13.43688      5.76864      0.52590        -0.042326     -0.233677      0.735951
O      13.46241      5.74080     13.63447         0.011966     -0.228368     -1.029571
O       1.85886      5.72391      4.86826        -0.031279      0.130265     -0.429450
O      13.54111      5.72244      4.87407        -0.730034      0.293125     -0.027756
O       1.86521      5.79349      9.29578         0.099275     -0.011541     -1.376773
O      13.42862      5.72813      9.27055        -0.135865     -0.020864      0.103207
O       1.78602      9.63189      0.57787         0.749966     -0.428381     -1.307693
O       1.91463      9.60402     13.58707        -0.094204     -0.295750      0.157455
O      13.33245      9.54348      0.54776         0.350259      0.011637     -0.417279
O      13.36604      9.56494     13.66345         0.207833      0.047886     -1.180023
O       2.00739      9.51030      4.91553        -0.338147      0.497174     -1.109726
O      13.46898      9.60554      4.87473        -0.370200     -0.085607      0.089337
O       1.86067      9.55666      9.31442         0.206704      0.243314     -3.875556
O      13.35579      9.58853      9.22354         0.155650     -0.055175      0.761874
O       5.69217      1.78792      0.51329         0.214739      0.160859      0.764263
O       5.73738      1.87866     13.55087        -0.186255      0.199018      0.116783
O       5.65898     13.36407      0.54170         0.492630      0.253314      0.620217
O       5.73022     13.41651     13.61034        -0.043070      0.037873     -1.259529
O       5.69331      1.89989      4.88794         0.104712     -0.233922     -0.232245
O       5.60848     13.47253      4.86518         0.220837     -0.100532      0.190507
O       5.76682      1.91929      9.24310        -0.206931      0.066564      0.590723
O       5.73004     13.43517      9.25889        -0.104054     -0.169759     -1.036253
O       5.82308      5.75827      0.49582        -0.343510     -0.042037      0.151129
O       5.76507      5.73182     13.66557        -0.211605      0.036259     -2.083545
O       5.81521      5.79166      4.95563        -0.462541      0.006857     -0.348842
O       5.73519      5.76568      9.31467        -0.009967     -0.093699     -1.181308
O       5.70474      9.60744      0.56260        -0.042983     -0.284458     -0.826116
O       5.78500      9.60492     13.65391        -0.181085     -0.375559     -1.761545
O       5.82711      9.48252      4.88938        -0.348906      0.216012     -0.745819
O       5.74856      9.53211      9.27748        -0.251403      0.065279     -0.860053
O       9.62730      1.85627      0.55629        -0.318783      0.075310      0.658014
O       9.60399      1.95916     13.66733         0.006707     -0.029751     -1.016408
O       9.59127     13.41122      0.49708        -0.271860      0.036128      1.014466
O       9.49712     13.39347     13.61538         0.227557     -0.093594     -0.767671
O       9.55836      2.03838      4.86468         0.242067     -0.411205      0.229581
O       9.58629     13.36656      4.93601        -0.016193     -0.056465     -0.694097
O       9.60130      1.89838      9.28947         0.090196      0.064659     -1.199705
O       9.56731     13.45766      9.20876        -0.007162     -0.131480      1.037487
O       9.59762      5.86746      0.50500        -0.469718     -0.474794     -0.589684
O       9.47737      5.65277     13.56506         0.228455      0.538580      1.189070
O       9.61013      5.73418      4.89920         0.053051     -0.106427     -0.417119
O       9.58420      5.74721      9.28856         0.022763     -0.221069     -0.879700
O       9.52684      9.57037      0.52929         0.079561     -0.037296     -0.287481
O       9.56981      9.63993     13.57385        -0.142753     -0.373809      0.818002
O       9.59936      9.69446      4.86066         0.276276     -0.468885      0.945639
O       9.52330      9.60187      9.21422         0.463175      0.021502     -0.688791
O       3.81855      1.92404      2.72956         0.188872     -0.630130      0.115737
O       3.85511      1.88505     15.78724        -0.642261      0.310608      0.112300
O       3.88635     13.40785      2.67531        -0.945445      0.230573      0.361960
O       3.82721     13.47045     15.75228        -0.055025     -0.811188      0.170330
O      15.35685      1.88644      2.69901         0.407338      0.073586      0.088584
O       0.00895      1.88545     15.70076        -0.456166     -0.318802      0.456152
O       0.02174     13.46586      2.73433        -0.488182     -0.668613     -0.088574
O      15.34051     13.38956     15.75775        -0.343303      0.387339      0.201878
O       3.80764      1.94169      7.05993         0.461942     -0.153470      0.161651
O       3.78211     13.52625      7.06433         0.649031     -0.820226      0.335110
O       0.02876      1.86301      7.07751        -0.816384      0.285128      0.181288
O       0.01833     13.40749      7.06375        -0.574262     -0.121221      0.329198
O       3.87433      1.94470     11.43188        -1.191797     -0.170063      0.190528
O       3.84062     13.43137     11.40610        -0.895977     -0.162471      0.077116
O      15.30874      1.94368     11.45637         0.374614     -0.582535     -0.173163
O      15.34249     13.36372     11.37634        -0.307976      0.052893      0.115486
O       3.77638      5.69481      2.71155         0.769336      0.333584      0.061081
O       3.77766      5.72623     15.83196         0.314028     -0.057877     -0.166703
O      15.32665      5.77536      2.67453        -0.129900     -0.276693      0.305601
O       0.02986      5.66474     15.74540        -0.834291      0.275982      0.252703
O       3.75030      5.75216      7.02661         0.793268      0.248287      0.431611
O      15.33633      5.74675      7.06523        -0.618389      0.220823      0.193859
O       3.84203      5.77282     11.36051        -0.378772     -0.102959      0.669411
O      15.32190      5.67620     11.38411         0.531744      0.291194      0.492216
O       3.88645      9.49711      2.71510        -0.834517      0.380307      0.162961
O       3.79716      9.54415     15.75672         0.009345      0.043087      0.372992
O       0.08413      9.60731      2.63914        -1.290730      0.003922      0.727238
O      15.35210      9.46401     15.80943        -0.988788      0.598480     -0.221448
O       3.80649      9.55530      6.99773         0.198092      0.148019      0.539671
O      15.33280      9.65467      7.03880        -0.465055     -0.285880      0.194694
O       3.81273      9.60881     11.39407        -0.062515     -0.590558      0.377537
O       0.05220      9.56043     11.37930        -2.111921      0.178125      0.382971
O       7.73103      1.88904      2.72727        -0.983159      0.146187      0.142310
O       7.62557      1.89699     15.73919         0.624239      0.194013      0.460481
O       7.64984     13.34325      2.77584         0.280995      0.432454     -0.139978
O       7.64079     13.35832     15.77133         0.091054      0.367720      0.209853
O       7.66000      1.90140      7.08901        -0.271653      0.000436     -0.029511
O       7.65653     13.41026      7.01439        -0.925430      0.013481      0.305144
O       7.70748      1.86300     11.42238        -0.456585      0.135926      0.109567
O       7.58416     13.48510     11.47028         1.257121     -0.453692     -0.087387
O       7.61928      5.73995      2.73469         0.133237     -0.325204     -0.118252
O       7.66453      5.68880     15.77451        -0.506668      0.449661      0.180368
O       7.63892      5.80365      7.05575         0.470336     -0.328821      0.385450
O       7.78104      5.78219     11.41912        -2.984917     -0.090786      0.501718
O       7.72310      9.60559      2.72358        -1.074462     -0.054982      0.090698
O       7.59181      9.52113     15.78285         0.986354     -0.101586      0.156457
O       7.69614      9.64262      7.07563        -0.459434     -0.396106      0.105288
O       7.70325      9.51213     11.40816        -0.261459      0.309558      0.237884
O      11.52787      1.89123      2.66881        -0.142339      0.196515      0.668959
O      11.50446      1.78874     15.82623         0.405791      0.906691     -0.216951
O      11.50185     13.35257      2.70756         0.121156      0.403974      0.210040
O      11.47704     13.43218     15.73124         0.353736     -0.221999     -0.069723
O      11.58549      1.88010      7.06226        -1.218821      0.035700      0.020702
O      11.54148     13.41986      7.01529        -0.763565      0.060050      0.653826
O      11.53088      1.85206     11.56053        -0.286003      0.482791     -0.647859
O      11.49237     13.35076     11.45374         0.042249      0.327950      0.035868
O      11.44220      5.76688      2.59101         1.190592      0.236368      0.782877
O      11.44416      5.68266     15.78557         0.598115      0.161088     -0.037745
O      11.45704      5.66035      7.11610         0.398952      0.534563     -0.278286
O      11.49640      5.67329     11.45355         0.372644      0.251627      0.259068
O      11.52301      9.52906      2.65082         0.023939     -0.040045      0.636531
O      11.44812      9.54324     15.73564         0.545582      0.214043      0.221472
O      11.49377      9.61815      7.06919         0.186389     -0.122034      0.058626
O      11.49168      9.48020     11.44284         0.420234      0.559221     -0.107045
O       1.91681      3.81925      2.66764        -0.308163     -0.358126      0.342421
O       1.89045      3.80368     15.78121         0.346765      0.039628     -0.085122
O       1.87807     15.27966      2.68939         0.544335      0.845703      0.175803
O       2.00467     15.29194     15.73510        -0.673217      0.849600      0.405089
O      13.40508      3.84077      2.74891         0.129698      0.083254      0.046528
O      13.45958      3.82308     15.82226        -0.386269     -0.763116     -0.041940
O      13.42586     15.31723      2.70304         0.025768      0.098698      0.032449
O      13.38692     15.32993     15.82334         0.478707      0.063141     -0.045889
O       1.85109      3.83627      7.02963         0.293521      0.018329      0.364597
O       1.90181     15.35946      7.08791         0.081514     -0.211469      0.032012
O      13.37905      3.85986      7.06411         0.390940     -0.419035     -0.101485
O      13.45579     15.31070      7.09180         0.051141      0.408012      0.176510
O       1.89023      3.79804     11.32668         0.283766     -0.108477      0.722235
O       1.88846     15.35545     11.40044         0.012802     -0.339169      0.009781
O      13.48191      3.82860     11.49642        -0.571196     -0.924918     -0.122433
O      13.36652     15.31487     11.39539         0.358131      0.085904      0.055935
O       1.88377      7.68205      2.79129         0.338331     -0.461365     -0.319246
O       1.81067      7.65292     15.87274         0.875986     -0.347828     -0.302863
O      13.50406      7.70750      2.70350        -0.340541     -0.985941      0.468215
O      13.32908      7.57788     15.70501         0.433261      1.039865      0.418009
O       1.83489      7.68146      7.01813         0.099840      0.024326      0.438641
O      13.37517      7.63508      7.09532        -0.107052      0.800817     -0.220882
O       1.84637      7.64446     11.37872         0.384513      0.005578      0.514328
O      13.44486      7.62647     11.46510         0.004490      0.536900      0.099983
O       1.90797     11.48051      2.62673         0.613974      0.696648      0.710059
O       1.87678     11.46353     15.84089         0.077003      0.175036     -0.279612
O      13.43165     11.48435      2.66144         0.329678      0.074494      0.482326
O      13.46209     11.49628     15.83199        -0.410687     -0.099368     -0.440423
O       1.91586     11.51282      7.08817         0.228164     -0.349460      0.255163
O      13.40607     11.50694      7.08416         0.043861     -0.419692      0.141540
O       1.90417     11.47086     11.50382         0.052368      1.124641     -0.436398
O      13.37739     11.38678     11.49077         0.290363      1.086123     -0.183332
O       5.71503      3.76963      2.68028         0.264672      0.265595      0.090982
O       5.76023      3.78258     15.83593        -0.283597      0.711884     -0.090560
O       5.91613      0.02177      2.72957        -0.934371     -0.971493     -0.028227
O       5.68514      0.01702     15.71015         0.490914     -1.056568      0.407246
O       5.76748      3.84669      6.95023        -0.253682     -0.290066      0.731055
O       5.70125     15.30710      7.03862         0.220636      0.595684      0.184607
O       5.72296      3.86066     11.37306         0.388240     -0.502685      0.587584
O       5.71663     15.32815     11.34434        -0.026141      0.490662      0.388531
O       5.76774      7.59909      2.72245        -0.140069      0.551843     -0.162647
O       5.59417      7.61714     15.73637         0.660792      0.327960      0.223092
O       5.75180      7.68187      7.09182        -0.257334      0.174434      0.358549
O       5.74403      7.64348     11.33522         0.012192     -0.322280      1.108948
O       5.77358     11.46174      2.67673        -0.393023      0.244525      0.418962
O       5.76404     11.49371     15.68874        -0.406682     -0.298914      0.525700
O       5.75582     11.48569      6.91599        -0.525531      0.484670      0.638923
O       5.72159     11.42755     11.33714         0.172620      0.932077      0.555080
O       9.57456      3.86654      2.66977         0.088906     -0.727293      0.224355
O       9.64206      3.86119     15.78896        -0.482569     -0.679669      0.349977
O       9.62737     15.30307      2.73139        -0.342129      0.137723      0.268206
O       9.52653      0.00566     15.69477         0.081594     -0.645956      0.377644
O       9.54333      3.78473      7.03162         0.148706      0.450465      0.465143
O       9.49001      0.00309      6.97818         0.635965     -0.001820      0.468379
O       9.53725      3.82136     11.51786         0.418507     -0.843216     -0.399590
O       9.58602     15.32719     11.40869         0.273836      0.000612      0.302465
O       9.51599      7.65559      2.65289         0.352144     -0.056343      0.544198
O       9.60195      7.67235     15.80003        -0.469943     -0.356822     -0.203004
O       9.58203      7.66553      6.97867         0.346692     -0.079952      0.316454
O       9.58190      7.68640     11.36216         0.328547     -0.424259      0.415662
O       9.65508     11.51179      2.65991        -0.260617     -0.152380      0.311713
O       9.59699     11.46070     15.80305        -0.340962      0.110982     -0.066506
O       9.55331     11.50169      7.06772         0.400642     -0.142254      0.489230
O       9.59869     11.54820     11.41289        -0.205232     -0.587392      0.006727
