  # total energy = -7878.94487007 
CRSYTAL
PRIMVEC
    15.2000000000000000    0.0000000000000000    0.0000000000000000
     0.0000000000000000   15.2000000000000000    0.0000000000000000
     0.0000000000000000    0.0000000000000000    17.000000000000000
PRESSURE
7.85015 8.05023 3.72039 0.005784 0.094329 0.060583
PRIMCOORD
320 1
Pb       3.80241      3.65213      4.12584         0.381329      0.458239     -0.018854
Pb       3.85802      3.76710     16.89727        -0.215640     -0.318003      0.050828
Pb       3.72834     15.19548      4.19658         0.491128     -0.118681     -0.286984
Pb       3.66432     15.18842     16.93330         0.520937     -0.031923      0.039720
Pb       0.02950      3.68187      4.19467        -0.237141      0.291105      0.555274
Pb      15.17371      3.72906      0.08112        -0.345597      0.310751     -0.726911
Pb      15.17267     15.18668      4.32763        -0.157613     -0.020052     -0.707225
Pb      15.03254     15.18129      0.08007         0.469143     -0.194181     -0.169137
Pb       3.87367      3.87683      8.56297        -0.580223     -0.925923     -0.322175
Pb       3.78827     15.05081      8.67295         0.293381      0.328935     -0.200851
Pb       0.15754      3.77834      8.52845        -0.598931      0.082916     -0.691093
Pb      15.14106     15.06818      8.38563         0.493840      0.646195      0.286111
Pb       3.71741      3.82424     12.69084        -0.146280     -0.095473      0.170322
Pb       3.59726      0.09712     12.80352         0.680363     -0.452875     -0.260989
Pb      15.08603      3.93293     12.67173         0.210365     -0.005794      0.661147
Pb      15.17307      0.16972     12.83044        -0.281428     -0.307295     -0.459603
Pb       3.79752      7.48000      4.17617         0.466485     -0.300333     -0.309993
Pb       3.76385      7.52612     16.86245        -0.153893      0.612717      0.668930
Pb       0.00975      7.64476      4.22939        -0.292710     -0.718176      0.152885
Pb      15.00129      7.55955     16.96490         0.301478     -0.275999     -0.310764
Pb       3.86585      7.69115      8.46142        -0.464514     -0.725856     -0.083851
Pb       0.11596      7.57008      8.40259        -0.614338     -0.297635      0.013656
Pb       3.74538      7.61178     12.70836        -0.519530     -0.187594     -0.015676
Pb       0.04214      7.64547     12.65181        -0.538124     -0.019005      0.351274
Pb       3.76090     11.18306      4.20585         0.592968      0.635606     -0.354765
Pb       3.80449     11.33039      0.19208         0.216212      0.237889     -0.609075
Pb       0.11913     11.34082      4.16415        -0.721700     -0.107953      0.270546
Pb      15.15370     11.37380      0.09887        -0.459570      0.249301     -0.721818
Pb       3.85726     11.34736      8.57144        -0.280442      0.845376     -0.435624
Pb       0.06924     11.44978      8.35801         0.122919     -0.596842      0.421498
Pb       3.66443     11.39148     12.84533         0.672100      0.394692     -0.209292
Pb       0.02238     11.36054     12.90217        -0.838636      0.040036     -0.494869
Pb       7.51275      3.66922      4.28772        -0.317395      0.403058     -0.026967
Pb       7.54245      3.70559     16.84579         0.141971      0.333999      0.454698
Pb       7.60281     15.07306      4.24871         0.042939      0.149334      0.261179
Pb       7.63790     15.16461     16.92170        -0.431386     -0.074132     -0.108296
Pb       7.48811      3.76423      8.69250         0.356814     -0.288112     -0.767955
Pb       7.66192     15.17751      8.48508        -0.414679      0.110998      0.481397
Pb       7.63963      3.92619     12.80921        -0.236765     -0.306756     -0.741508
Pb       7.56217     15.13330     12.79027        -0.444939     -0.391574     -0.948682
Pb       7.69800      7.47962      4.16322        -0.161289      0.452581      0.512208
Pb       7.61859      7.71163     16.93325         0.065214     -0.476452     -0.032712
Pb       7.53484      7.60176      8.50530         0.198802      0.369888     -0.460857
Pb       7.50698      7.66128     12.69423         0.320803      0.176981      0.114029
Pb       7.59515     11.29856      4.37198        -0.165498     -0.239309     -0.266469
Pb       7.63651     11.39786     16.88165        -0.249766      0.342078      0.143117
Pb       7.67169     11.40577      8.64378        -0.117156      0.154041     -0.600525
Pb       7.57187     11.39049     12.73691         0.185182      0.388852      0.081822
Pb      11.24100      3.73795      4.37870         0.106214      0.424349     -0.332862
Pb      11.27230      3.63330      0.00655         0.007445      0.757576      0.218203
Pb      11.34435     15.14150      4.25688        -0.059941     -0.146722     -0.185382
Pb      11.37282      0.04917      0.06169        -0.027149     -0.752251     -0.051213
Pb      11.43483      3.88517      8.53009        -0.364396     -0.576165     -0.406704
Pb      11.46642      0.03028      8.24641        -0.143719     -0.078182      1.009308
Pb      11.32664      3.83976     12.74411         0.151834     -0.078181     -0.494023
Pb      11.45627     15.19724     12.59320         0.341480      0.155230     -0.244067
Pb      11.32058      7.60667      4.26789        -0.131533     -0.139765     -0.233133
Pb      11.33662      7.57016     16.94701         0.240163     -0.308468     -0.088095
Pb      11.33197      7.54136      8.56743         0.454458      0.262536     -0.271408
Pb      11.44502      7.66600     12.75690         0.195785      0.248698     -0.138959
Pb      11.26175     11.23396      4.27987         0.580648      0.194428      0.076972
Pb      11.34747     11.53388     16.94604         0.595912     -0.239859     -0.005512
Pb      11.49036     11.39547      8.40742         0.087084     -0.168582      0.140687
Pb      11.40601     11.58751     12.54988         0.406022     -1.012931      0.137998
Ti       1.86323      1.85162      2.09708         0.316761     -0.383315      0.453631
Ti       1.83867      1.91916     15.00378        -0.335986     -0.348970      0.648715
Ti       1.88832     13.22940      2.31633         0.409849      0.507825     -0.724681
Ti       1.91136     13.19231     15.05052        -0.852469      1.494830      0.109139
Ti      13.22185      1.83373      2.31209        -0.144717     -0.507936     -0.467990
Ti      13.16905      1.87327     14.98702         1.570112      0.101243     -0.589778
Ti      13.32685     13.16611      2.36880        -0.770605      0.216898      0.758987
Ti      13.34483     13.32891     14.96327        -0.114011     -1.534310     -0.647424
Ti       1.91539      1.83480      6.54374        -0.571646      0.670537      0.249975
Ti       2.00866     13.28349      6.43729         0.040270     -1.987990      0.447782
Ti      13.27185      1.91624      6.40106         0.819697      0.891726      1.053173
Ti      13.41644     13.22230      6.38436        -1.126189     -0.350911     -0.331971
Ti       1.85177      1.93825     10.74582         0.035791     -0.539368     -0.259095
Ti       1.88440     13.24338     10.86079         0.084439      0.934016     -1.330846
Ti      13.23548      2.02638     10.60679        -0.377743     -1.517973      1.534543
Ti      13.43526     13.29189     10.63568        -0.655413      0.372447      0.635194
Ti       1.81532      5.65429      2.17208         0.527542     -0.121631      0.633571
Ti       1.82166      5.72647     15.00373        -0.936896     -0.942831     -1.254311
Ti      13.22447      5.60459      2.35547        -0.486980      0.494834     -1.091381
Ti      13.18275      5.62897     15.06111         0.690218      0.263920     -0.963249
Ti       1.91051      5.61045      6.43078        -0.524623      0.096832      1.227242
Ti      13.20880      5.69226      6.49745         1.184145     -0.880673     -0.328110
Ti       1.89067      5.74345     10.68849        -0.915902     -0.679943      0.767726
Ti      13.22675      5.76172     10.67978         0.045916      0.205392      0.651793
Ti       1.88127      9.36206      2.14868         0.965807      0.025114      0.188673
Ti       1.87242      9.48080     14.99301        -0.821743     -0.714769      1.246739
Ti      13.32558      9.36460      2.15327        -1.132640      1.124943      0.730893
Ti      13.23509      9.46383     14.94988         0.535829      0.959713     -0.849801
Ti       1.92818      9.39262      6.47072        -0.659948      1.094672      0.188058
Ti      13.34508      9.42920      6.42906        -0.550633     -0.065921      1.152722
Ti       1.84467      9.57269     10.66188        -0.883090     -1.163098      1.200029
Ti      13.29999      9.49792     10.60430        -0.150079      0.513113      0.417343
Ti       5.74502      1.82956      2.13448        -1.519391      1.329955     -0.071576
Ti       5.70141      1.93280     14.81715        -0.199753     -1.041867      1.818464
Ti       5.69664     13.32522      2.19819        -0.355525     -0.546245      0.126320
Ti       5.73043     13.30840     15.05258        -0.628210      0.157956     -1.043018
Ti       5.61082      1.87775      6.56721         0.291882     -0.335753     -0.415158
Ti       5.68071     13.33752      6.53419         0.517042     -0.297327      0.349561
Ti       5.70950      1.93437     10.84695        -0.484348     -1.232243      0.017291
Ti       5.67729     13.27962     10.84359         0.338310      1.061866     -0.424365
Ti       5.71887      5.66008      2.13515        -0.022310     -0.325976      2.250896
Ti       5.61554      5.71945     14.93105         0.829155     -0.058139      0.474991
Ti       5.62319      5.69031      6.46358         0.700709     -0.346320     -1.052013
Ti       5.60876      5.73862     10.66894         0.512342     -1.308780      1.092654
Ti       5.81740      9.49143      2.21286        -0.561963     -0.118811     -0.831477
Ti       5.69680      9.49223     14.97779        -0.135151      1.224038      0.868852
Ti       5.61625      9.55773      6.55446         1.980764     -0.079672     -0.515554
Ti       5.62210      9.51749     10.78315         0.407594      0.930012     -0.165694
Ti       9.36624      1.89145      2.22386         1.411274     -0.843804      0.818124
Ti       9.46635      1.82708     14.84926        -0.164915      0.075200      0.758761
Ti       9.49300     13.21073      2.32823         0.512155      0.440648     -0.970201
Ti       9.55339     13.28347     14.83316         0.116216      0.054451     -0.071167
Ti       9.42076      1.90121      6.59207         0.119568      0.422436      0.226278
Ti       9.52519     13.25678      6.55048         0.330793     -0.567030     -0.771769
Ti       9.44630      1.87978     10.76460         0.540512      0.390698     -1.115272
Ti       9.57919     13.34725     10.64109        -0.910501     -0.382894      0.895915
Ti       9.42190      5.61837      2.17411         1.777236      0.263465     -0.581937
Ti       9.41103      5.68789     14.94323         0.606227     -0.323671      2.169147
Ti       9.35876      5.67902      6.56903         0.902864     -0.845820     -1.016690
Ti       9.41672      5.79897     10.71164         0.203787     -1.458907      0.040016
Ti       9.52482      9.48887      2.10422         0.731249     -0.363035      1.435964
Ti       9.54011      9.53801     14.96301        -0.071807     -0.255975     -1.679073
Ti       9.50630      9.39349      6.61971        -0.498464      1.185820     -0.864458
Ti       9.46783      9.49787     10.75509         0.475627      0.535924     -0.033201
O       1.88782      1.99128      0.31490         0.051338     -0.337882      0.308594
O       1.85865      1.82726     13.23881        -0.111472      0.247182     -0.901680
O       1.89907     13.27452      0.53630        -0.024548     -0.573141     -0.699403
O       1.75374     13.12719     13.25591         0.801109      0.191294     -0.374176
O      13.22041      1.72203      0.46398         0.050599      0.435728      0.119492
O      13.22412      1.86608     13.20339        -0.041128      0.020904      0.101691
O      13.43555     13.43098      0.64395        -0.333512     -0.536573     -2.172896
O      13.33841     13.17960     13.17368        -0.146044      0.430281      0.098965
O       1.85641      1.97298      4.75098         0.256295     -0.617521     -0.246803
O       1.96424     13.24382      4.67978        -0.134057     -0.013508     -1.296257
O      13.39237      1.90527      4.64383        -0.188608      0.021245     -1.088708
O      13.45063     13.15046      4.59382        -0.163940      0.103882      0.595025
O       1.88325      1.93048      8.96452        -0.323431     -0.246034      0.231434
O       1.98617     13.30842      9.00467        -0.439549     -0.284848      0.907275
O      13.17799      1.94641      8.87411         0.321021     -0.012875     -0.707356
O      13.53024     13.29316      8.86796        -0.341858      0.112363     -0.823858
O       1.70224      5.72657      0.41976         0.815497     -0.219868     -0.554292
O       1.79526      5.76585     13.18123         0.386643      0.064769      0.043625
O      13.29417      5.64682      0.50971        -0.414351      0.095762      0.063451
O      13.23079      5.64325     13.26404        -0.181180      0.116170     -0.315936
O       1.98245      5.65536      4.69418        -0.118057     -0.010177     -1.284389
O      13.33134      5.62625      4.72852        -0.388674      0.226138     -0.904899
O       1.88392      5.71129      8.93871         0.117724     -0.194996     -0.294288
O      13.19295      5.65745      8.94286         0.114245      0.297174     -0.912507
O       1.90173      9.34855      0.40472        -0.073391      0.195342     -0.915863
O       1.81548      9.49223     13.25329         0.450377     -0.097110     -1.392334
O      13.14419      9.43794      0.40580         0.485273     -0.352982     -0.841117
O      13.21610      9.47392     13.13108        -0.189232      0.102848      0.539245
O       1.82169      9.24947      4.70176         0.593932      0.672749     -0.986871
O      13.39108      9.46476      4.67714         0.212575     -0.132688     -0.517448
O       1.84083      9.53234      8.93971         0.260155     -0.210580     -1.256053
O      13.26180      9.40218      8.83291         0.182444      0.134968      0.148214
O       5.72910      1.86876      0.38234         0.134264      0.408086     -0.668342
O       5.65083      1.95819     13.08341         0.250808     -0.367483     -0.661655
O       5.63914     13.31578      0.42516         0.286353     -0.471339     -0.390315
O       5.66019     13.31127     13.24679         0.235181     -0.072807      0.302618
O       5.63993      1.76685      4.75605        -0.044451      0.160576      0.271420
O       5.66947     13.42656      4.77589         0.127040     -0.036220     -0.652722
O       5.74181      1.95430      9.08287        -0.166526      0.073861     -1.108472
O       5.65736     13.16559      9.05112        -0.245594      0.179506     -0.535780
O       5.67308      5.53448      0.43259         0.025781      0.479683     -2.309303
O       5.57481      5.72406     13.16399         0.315340      0.413918     -0.176520
O       5.69463      5.60829      4.66448        -0.070638      0.112799      0.660826
O       5.58066      5.52622      8.91674         0.558415      0.914350     -0.487333
O       5.91965      9.58167      0.37303        -0.368619     -0.393177      1.003843
O       5.74310      9.45458     13.21865        -0.441312     -0.191031     -1.141937
O       5.66976      9.55907      4.79454        -0.040360      0.044152     -1.022450
O       5.65163      9.45093      8.97927         0.083070      0.418927      0.050398
O       9.47229      1.83707      0.47988        -0.263025     -0.468693     -0.796208
O       9.52547      2.01999     13.10986        -0.448059     -0.413016     -0.512269
O       9.55267     13.23924      0.51959        -0.141372      0.176495      0.107415
O       9.51890     13.20740     13.02839         0.238811      0.475649      0.420296
O       9.55857      1.98464      4.82305        -0.698907     -0.299206     -1.162569
O       9.62692     13.24840      4.70851        -0.642609     -0.213630      0.506436
O       9.54543      1.78270      8.94660        -0.414194      0.357176     -0.281637
O       9.48894     13.38703      8.90711         0.103553     -0.060258     -1.760726
O       9.53433      5.55025      0.37740        -0.266196      0.467934      0.316812
O       9.44187      5.56287     13.22394        -0.204084      0.060723     -1.997685
O       9.48323      5.71857      4.73273        -0.210240     -0.426137      0.368541
O       9.42609      5.84279      8.94084        -0.224107     -0.098584     -0.842729
O       9.45854      9.50817      0.33208         0.100080     -0.074067     -0.536399
O       9.53185      9.60292     13.13164        -0.177824     -0.509426      0.392594
O       9.42431      9.38374      4.81330         0.363266      0.617728     -0.300868
O       9.35872      9.34794      8.96921         0.154979     -0.152593     -0.814660
O       3.81375      1.87027      2.52803        -1.261398      0.382795     -0.006680
O       3.89981      1.77772     15.31154        -1.367096      0.364030     -0.107178
O       3.84741     13.13954      2.65754        -0.712918      0.189762      0.013721
O       3.75136     13.38715     15.41329         0.442038     -0.542155     -0.321704
O      15.15653      1.76941      2.50487         0.985877      0.182341      0.116821
O      15.16281      2.03126     15.27076        -0.421930     -0.191496      0.312282
O       0.00473     13.29591      2.61602         1.193154     -0.296741      0.595024
O      15.19124     13.22000     15.33121         0.205283     -0.372018      0.738898
O       3.73468      1.81311      7.00483         0.505138      0.049489     -0.307759
O       3.84758     13.22042      6.89422        -0.530902      0.444059      0.278430
O       0.00992      2.00007      6.84297         0.054243     -0.736352      0.170405
O       0.06815     13.20146      6.79614        -0.233264      0.238166     -0.112664
O       3.71670      1.90064     11.17335        -0.116347     -0.540357     -0.050202
O       3.77980     13.38556     11.22875        -0.859010     -0.543291      0.084686
O      15.06227      2.18523     11.10881         0.623993     -1.011400     -0.479144
O       0.00588     13.15739     11.12679         0.684212      0.142640      0.103152
O       3.89448      5.54265      2.56471        -1.837580      0.528457     -0.191805
O       3.76299      5.80781     15.30443         0.703309     -0.335417      0.155060
O      15.16009      5.82924      2.47577         0.032430     -0.373377      0.688572
O      15.15268      5.58003     15.29982        -0.749398      0.140319      0.540260
O       3.79959      5.65711      6.88794        -0.050402      0.265862     -0.007920
O       0.04028      5.68342      6.82787        -0.382007      0.006249      0.194834
O       3.74175      5.68534     11.07220         0.270683      0.559010      0.170785
O      15.11569      5.65718     11.02813         0.192786      0.001963     -0.028382
O       3.86558      9.52596      2.37882        -0.383971     -0.387487      0.568172
O       3.75862      9.45707     15.24024         1.101569     -0.459833      0.439338
O       0.01830      9.25999      2.39958        -0.077218      0.009846      0.460201
O      15.12657      9.39407     15.19990         0.704929      0.295347      0.766393
O       3.75830      9.49206      6.94205         0.502516     -0.192845     -0.032606
O       0.08010      9.47278      6.81955        -0.982104     -0.170895      0.067708
O       3.68488      9.47160     11.07106         1.777482     -0.219571      0.432272
O      15.19212      9.56330     11.12036        -0.148395     -0.313266     -0.279807
O       7.52574      1.80420      2.67343         1.023143     -0.547184      0.194853
O       7.57013      1.85739     15.24939         0.105386      0.258405     -0.094765
O       7.55356     13.30090      2.59529         0.326295      0.056993      0.379365
O       7.67788     13.20578     15.18479        -0.460898     -0.058850      0.493109
O       7.52845      1.85267      6.91995         0.413082     -0.157240     -0.087956
O       7.63657     13.18238      6.80500        -0.117003      0.452949      0.170349
O       7.59720      1.84129     11.09636        -0.135494      0.402872      0.487161
O       7.58705     13.27883     11.03089         0.817017      0.122138      0.501396
O       7.65467      5.73809      2.52589        -1.308039     -0.131568      0.288288
O       7.56562      5.55938     15.28785        -0.650487      0.232505     -0.103839
O       7.54352      5.61966      6.81072        -0.892227      0.322105      0.550765
O       7.46848      5.51781     11.01863         0.196167      0.785066      0.314481
O       7.70381      9.48430      2.63849        -0.707664     -0.176198     -0.149229
O       7.61371      9.66507     15.22088         0.308230     -0.656980      0.334976
O       7.63251      9.59208      6.83479        -1.251511     -0.050520      0.648146
O       7.52011      9.60500     11.14001         0.044060     -0.544192     -0.050717
O      11.33052      1.88269      2.50687        -0.149357      0.035836      0.588621
O      11.32346      1.66707     15.20681        -0.009427      0.082709      0.714678
O      11.44605     13.12807      2.61406        -0.721350      0.168642      0.271075
O      11.45976     13.39620     15.34921        -0.936804     -0.369319      0.069753
O      11.40981      1.94157      6.71648        -0.019661     -0.341868      0.414920
O      11.51589     13.28099      6.82648        -0.014074      0.180261     -0.040915
O      11.28138      1.80626     11.11468         2.138562      0.629151      0.087010
O      11.48287     13.38944     10.96031         0.035487     -0.470927      0.130364
O      11.27457      5.53404      2.60780         1.195671      0.004220      0.303310
O      11.31652      5.74590     15.26019        -0.319573     -0.386393      0.509573
O      11.33129      5.62892      6.86037        -0.014400      0.360981      0.146295
O      11.27975      5.88333     10.95409         0.667142     -0.114134      0.489535
O      11.46720      9.59645      2.64886        -1.670180     -0.398735     -0.297073
O      11.38533      9.47340     15.32382        -0.966214     -0.181553      0.301941
O      11.41570      9.52244      6.72576         0.235866     -0.685130      0.462410
O      11.31113      9.34214     11.00086         0.780094      0.389952     -0.082805
O       1.76096      3.72988      2.48310         0.325442      0.290143      0.082479
O       1.95789      3.81906     15.23943         0.538223     -0.301499      0.534101
O       1.93262     15.11836      2.45990         0.184465      1.132973      0.591348
O       1.73943     15.16047     15.25707         0.567084      0.307689      0.383929
O      13.33541      3.73901      2.62251         0.117235      0.111698     -0.084775
O      13.06171      3.73706     15.34708         0.139934     -0.156997      0.259880
O      13.27010     15.14249      2.66042        -0.161220      0.451862      0.617351
O      13.37828     15.14197     15.37043         0.075882      1.137991     -0.040423
O       1.93133      3.77421      6.90017         0.141932     -0.168659     -0.070910
O       1.90722     15.05305      6.75891        -0.271381      2.442413      0.412547
O      13.29383      3.78758      6.78630        -0.146509      0.066260      0.379610
O      13.41492     15.18952      6.62347         0.044074     -0.559082      0.412182
O       1.89326      3.78047     11.16606        -0.087770      0.974658     -0.295836
O       1.79139     15.19198     11.12486        -0.332967      0.296700      0.302390
O      13.03520      3.87484     11.03711         0.052973     -0.104592      0.055261
O      13.41794      0.01158     10.99003        -0.088741      0.518460      0.171040
O       1.98406      7.50728      2.59593         0.394178      0.020002      0.022523
O       1.85619      7.53341     15.30344         0.074931      1.362684      0.505542
O      13.07470      7.57325      2.58782         0.412011     -1.209342      0.181673
O      13.17411      7.59925     15.25199         0.291434     -1.051723      0.741723
O       1.92966      7.54478      6.84115         0.340869     -0.024216      0.296686
O      13.29789      7.52875      6.82426         0.048528      0.924688      0.083140
O       1.81125      7.57469     10.99971         0.237965      0.784000      0.323702
O      13.26651      7.67862     11.03837         0.341617     -1.516221      0.312480
O       1.85794     11.27047      2.50967        -0.147423     -0.005025      0.291451
O       1.94650     11.32129     15.38823        -0.258313      0.340467      0.368379
O      13.42459     11.25264      2.46989         0.658641      0.750623      0.309478
O      13.31156     11.36047     15.38110        -0.228095      0.582906      0.334001
O       1.97056     11.36396      6.78152        -0.194670     -0.399285      0.078905
O      13.28258     11.31783      6.82065         0.684597      0.763276     -0.093659
O       1.95470     11.35984     11.15748         0.046154      0.704478      0.094473
O      13.30039     11.37067     10.91570        -0.696951      0.196129      0.212955
O       5.74334      3.75528      2.54995         0.489384     -0.292212      0.310181
O       5.65173      3.83226     15.22029        -0.235251     -0.390336      0.107279
O       5.56919      0.01943      2.32849         0.264946     -1.584756      1.183577
O       5.80982     15.17244     15.31230        -0.003183      0.386615     -0.076439
O       5.67403      3.73838      6.83426        -0.196258      0.407857      0.228620
O       5.64269     15.19865      7.03404         0.261884     -0.664333     -0.098792
O       5.51045      3.77538     11.03657         0.415733      1.260636      0.420253
O       5.70470     15.18092     11.03720        -0.134499      0.411792      0.675110
O       5.75793      7.56423      2.52968        -0.187097      0.484795     -0.034040
O       5.84437      7.64322     15.40533        -0.466979     -0.869679     -0.307746
O       5.66138      7.60587      6.71200         0.009412     -0.282950      0.909402
O       5.72099      7.61749     10.95549        -0.185935     -0.254810      0.584692
O       5.70999     11.34038      2.63359         0.448745      0.247131      0.116959
O       5.69887     11.41166     15.41667        -0.630826     -0.312633     -0.171233
O       5.62379     11.40499      6.87106         0.191227      0.041069      0.212506
O       5.71238     11.44182     11.20794        -1.011080     -1.822829     -0.001522
O       9.34191      3.70775      2.50736         0.052449      0.464578      0.500545
O       9.48099      3.63020     15.45394         0.400076      0.805165     -0.860230
O       9.53542     15.07948      2.72474        -0.177456      1.255878     -0.210967
O       9.35100     15.11988     15.29284         0.449084      0.618857     -0.227964
O       9.41006      3.77215      6.89346         0.222794      0.186792      0.356199
O       9.56733     15.17947      6.78509        -0.335069     -0.265556      0.158556
O       9.47046      3.85644     10.98533         0.140333     -0.386397      0.378984
O       9.57649     15.17727     10.97199        -0.863229      0.189490      0.952151
O       9.60110      7.61898      2.59085        -0.195061     -0.300291     -0.532421
O       9.38891      7.54629     15.20429        -0.144739      0.927752      0.327685
O       9.38473      7.55924      6.79880         0.243114     -0.284790      0.767858
O       9.32501      7.60380     11.09330        -0.748135      0.201989      0.661699
O       9.47037     11.33791      2.55859        -0.110939     -0.148148      0.520811
O       9.58783     11.41013     15.15158         0.334620      0.403932      0.911982
O       9.64592     11.40435      6.95420        -0.590523     -0.146688      0.012076
O       9.55466     11.40775     10.76306        -0.008738     -0.117564      0.799798
