  # total energy = -7865.22288078 
CRSYTAL
PRIMVEC
    15.010000000000000    0.0000000000000000    0.0000000000000000
     0.0000000000000000   15.010000000000000    0.0000000000000000
     0.0000000000000000    0.0000000000000000    16.400000000000000
PRESSURE
17.0227 16.9842 7.94371 0.068142 -0.214425 0.089769
PRIMCOORD
320 1
Pb       3.70046      3.57289      4.14440         0.176831      0.388095     -0.045034
Pb       3.67452      3.79133     16.32971         0.427138     -0.239152     -0.406020
Pb       3.80399     14.92193      4.18966        -0.344103      0.042429     -0.789325
Pb       3.84084      0.06637     16.35879        -0.375239     -0.241781     -0.115194
Pb      14.97960      3.78719      4.24225        -0.045911     -0.501595     -0.561931
Pb      14.87736      3.75299      0.05679         0.561675     -0.022614     -0.465792
Pb      14.91875     15.00912      4.30570        -0.072597     -0.083791     -1.492227
Pb       0.07713      0.04117     16.28885        -0.935976     -0.133242      1.160995
Pb       3.70767      3.73738      8.12304         0.001118      0.200008      0.039285
Pb       3.81705     14.99597      8.29825        -0.692585     -0.433072      0.004394
Pb       0.07081      3.74666      8.11747        -0.098434      0.133874      0.198177
Pb       0.14728     14.91423      8.25124        -0.576878     -0.101951      0.079237
Pb       4.02326      3.70014     12.35265        -1.049418      0.115668      0.307516
Pb       3.68970     14.99111     12.34407         0.102747     -0.252063     -0.019431
Pb       0.06461      3.84629     12.27744         0.141687     -0.343678      0.021135
Pb      14.99427     14.97485     12.22911        -0.201956     -0.310726     -0.249324
Pb       3.66750      7.63181      4.22836        -0.044673     -0.562537     -1.365044
Pb       3.75739      7.54296      0.00545        -0.163374     -0.050693     -0.042776
Pb      14.87534      7.57694      4.11240         0.202228     -0.092529     -0.636614
Pb      14.90918      7.47110      0.03893         0.109530      0.103277      0.376710
Pb       3.71326      7.52819      8.28210         0.586673     -0.162486      0.175548
Pb       0.03938      7.49506      8.09790        -0.585141      0.340195      0.839008
Pb       3.70901      7.29134     12.39934         0.516498      0.453602     -0.199630
Pb      14.99098      7.47820     12.23718        -0.197133     -0.420182     -0.218330
Pb       3.58302     11.21340      4.08387         0.366995      0.532931     -0.463771
Pb       3.67602     11.32062      0.06606         0.122996     -0.465633     -0.638239
Pb      14.87616     11.17848      4.14646         0.412661      0.651016     -0.591931
Pb      14.93935     11.33567      0.06222        -0.285389     -0.272366     -0.179203
Pb       3.53521     11.21802      8.26097         1.059152      0.116579      0.052959
Pb      15.00177     11.16504      8.10597        -0.874165      0.386797      0.750947
Pb       3.67302     11.08777     12.46549        -0.006674      0.575010     -0.124343
Pb      14.95657     11.18411     12.32001         0.155026      1.025035      0.001426
Pb       7.45931      3.87371      4.25603         0.401558     -0.952593     -0.988745
Pb       7.52816      3.70698      0.21687         0.283030      0.148777     -0.578992
Pb       7.56039      0.03158      4.26316        -0.472166     -0.062256     -0.392544
Pb       7.61895      0.02968      0.01724        -0.232737     -0.082178     -0.148597
Pb       7.60429      3.76150      8.14882        -0.456668     -0.640954      0.267827
Pb       7.45733     14.96530      8.30550         0.119257     -0.313346      0.036554
Pb       7.57199      3.72274     12.39255         0.303076      0.631583     -0.439995
Pb       7.53262     15.00197     12.25397        -0.148095     -0.239892      0.278692
Pb       7.33591      7.46691      4.19502         0.201902      0.639308     -0.732741
Pb       7.50246      7.38355      0.10136         0.071511      0.735776     -0.195905
Pb       7.51698      7.38718      8.11245         0.013950      0.954325      0.343264
Pb       7.57937      7.56982     12.34851         0.238675     -0.914758     -0.154210
Pb       7.24688     11.19364      4.20049         0.502980      0.185467     -0.366342
Pb       7.37056     11.30868      0.05585         0.317362     -0.807024     -0.070912
Pb       7.41420     11.11153      8.22516         0.120142      0.537704      0.276129
Pb       7.52062     11.22761     12.41969         0.574425      0.115845     -0.869737
Pb      11.31145      3.67780      4.25383        -0.342907     -0.214578     -0.599032
Pb      11.36793      3.81110      0.11118        -0.782650      0.103944     -0.289189
Pb      11.26078     14.98483      4.19502        -0.002885      0.177069      0.058739
Pb      11.40655      0.13946     16.37582        -0.380619     -0.677007     -0.248318
Pb      11.44604      3.71844      8.27100        -0.836025     -0.114387     -0.347861
Pb      11.28268     14.89870      8.21110         0.107137      0.240952      0.331141
Pb      11.29503      3.73179     12.19185        -0.458137      0.323597      0.322721
Pb      11.30107     14.87177     12.35606         0.150829      0.361318     -0.908396
Pb      11.22340      7.54117      4.15029        -0.137135      0.092071     -0.934029
Pb      11.22331      7.43135      0.15986         0.071214      0.575933     -0.145319
Pb      11.23201      7.51533      8.10212         0.512000      0.334181      0.677145
Pb      11.25623      7.43853     12.36568        -0.213698      0.295544     -0.547300
Pb      11.02923     11.28744      4.16781         0.099363      0.442397     -0.641415
Pb      11.14196     11.32496      0.01822         0.711893     -0.248201      0.369930
Pb      11.15105     11.25366      8.22391         0.336172      0.305269      0.282495
Pb      11.24202     11.11059     12.41944        -0.151442      0.749525     -0.734279
Ti       1.89628      1.91241      1.99639        -0.925159     -2.182797      0.011582
Ti       1.84943      1.88622     14.33689         0.680170      0.502352     -0.223920
Ti       1.85122     13.08192      2.03256        -1.195511      1.713162      0.983950
Ti       1.82975     13.15039     14.46966         1.143989     -0.562089     -0.680769
Ti      13.14998      1.77185      2.08523         0.878737     -0.007077      1.133025
Ti      13.14741      1.98041     14.19631         0.054220     -0.815477     -0.556254
Ti      13.09624     13.10257      2.09674         0.135441      0.400769     -0.336992
Ti      13.11060     13.19030     14.32647         0.790474     -0.819392     -1.199572
Ti       1.85985      1.83127      6.16842        -0.683879     -0.471252     -0.066134
Ti       1.81212     13.12486      6.06054         0.159162     -0.358801      0.208485
Ti      13.12482      1.89522      6.28501        -0.598004     -0.644904     -0.955775
Ti      13.07636     13.14785      6.22983        -0.363180     -0.349113      0.374155
Ti       1.84254      1.88679     10.25056        -0.014064     -0.746257      0.862435
Ti       1.93362     13.04947     10.29853        -1.231283     -0.025031      0.505069
Ti      13.12869      1.92566     10.27321        -0.165358     -2.341220      0.355924
Ti      13.16308     13.07099     10.24081        -0.643606      0.385842      0.794796
Ti       1.88423      5.55810      2.12967         0.083362      1.874562     -0.055452
Ti       1.81876      5.65954     14.40980         1.067947     -0.838030     -0.086636
Ti      13.17367      5.54731      2.15614        -0.812080      1.251155     -0.509205
Ti      13.10829      5.64259     14.34895        -0.251643     -0.229705     -0.513121
Ti       1.84495      5.72429      6.12854        -0.025837     -1.385642      0.234333
Ti      13.07110      5.67892      6.14965        -0.203164     -0.836592      0.585729
Ti       1.94218      5.60906     10.24293        -0.768530     -0.376619     -0.663487
Ti      13.15615      5.62044     10.17739        -0.195014      1.433859      0.890552
Ti       1.78628      9.33736      1.94908        -1.392470     -0.523452      0.252079
Ti       1.75147      9.35229     14.35284         1.604675      0.337788      1.213203
Ti      12.99802      9.44852      2.00188         0.856766     -0.769459      0.198849
Ti      13.10807      9.36177     14.40720        -1.170726      1.049970      0.895728
Ti       1.86957      9.40091      6.19682        -0.733430      0.215873      0.050688
Ti      13.06474      9.42425      6.12465        -0.003488     -0.079778      1.131254
Ti       1.83976      9.29471     10.29901         0.860265      0.553895      0.176186
Ti      13.13368      9.39337     10.29901        -1.168209     -0.393200     -1.475193
Ti       5.68118      1.83794      2.04444        -0.009464      0.221954      0.117157
Ti       5.75795      1.83368     14.41667        -1.606834     -0.474987     -0.151287
Ti       5.59380     13.15508      2.02733        -0.499096      0.159115      0.981752
Ti       5.68741     13.01692     14.35166        -1.514686      1.553289     -0.554615
Ti       5.57285      1.80497      6.26953         0.265631     -0.258997     -0.714399
Ti       5.50306     13.05438      6.27794         0.667468     -0.021269     -0.152948
Ti       5.56516      1.79879     10.32469         0.406733     -0.037182     -0.007696
Ti       5.63868     13.02588     10.33835         0.517722      0.150350     -0.179938
Ti       5.57872      5.56720      2.08273         0.120627      0.582694      0.026220
Ti       5.70127      5.60188     14.44936        -0.582994     -0.340583      0.035994
Ti       5.53744      5.59849      6.13987        -0.297393     -0.382221      0.670057
Ti       5.67772      5.60189     10.21467         0.334291      0.808685      1.507197
Ti       5.46534      9.37418      2.12436         0.945863     -0.444946     -0.937043
Ti       5.62116      9.25652     14.35549        -0.495761      0.953182      1.894475
Ti       5.52947      9.32511      6.24578         1.331502      1.423482     -0.187226
Ti       5.63467      9.34642     10.42023        -0.119965     -1.426107     -1.512035
Ti       9.45405      1.85011      2.14387        -1.010263      0.593982     -0.119758
Ti       9.44537      1.92429     14.44375         0.258223      0.209356     -0.977965
Ti       9.30912     13.16942      2.12233         0.833109     -0.748527      0.582471
Ti       9.42553     13.21038     14.35611        -0.346637     -0.250324     -0.173190
Ti       9.34825      1.85741      6.24823        -0.008245      0.496430     -0.229644
Ti       9.29022     13.24009      6.23414        -0.230246     -1.461053      0.312297
Ti       9.36728      1.87512     10.30644         0.217954     -0.764430     -0.152120
Ti       9.38815     13.13171     10.28023         0.223208     -1.893501     -0.027464
Ti       9.34776      5.64529      2.14320         0.495158     -0.916285      0.708708
Ti       9.39535      5.68161     14.44546        -0.196485     -0.513816     -0.242838
Ti       9.36209      5.59085      6.12382         0.314175      0.500085      0.336885
Ti       9.44429      5.64600     10.15120        -0.895901     -0.496522      1.597685
Ti       9.21424      9.39577      2.13615         0.530979      0.520025      0.019349
Ti       9.35729      9.45569     14.43938         0.765088     -1.575467      0.142692
Ti       9.35498      9.44946      6.14526        -0.719439     -0.548976     -0.286958
Ti       9.41124      9.33198     10.12264        -0.368855      1.282989      1.581158
O       1.73750      1.88296      0.13029        -0.080877      0.892954      1.413948
O       1.67609      1.76128     12.49986         0.886344      0.103367     -0.244927
O       1.74418     13.02051      0.21435         0.269054      0.195300     -0.543998
O       1.78724     13.15266     12.65052         0.432171      0.005286     -0.617956
O      13.17787      1.91169      0.25274        -0.307357     -0.305740     -0.067492
O      13.18525      1.97801     12.36134        -0.078837      0.200632      0.607934
O      13.10589     13.12961      0.24820        -0.133043      0.407286      0.081694
O      13.10352     13.05478     12.38868         0.258204      0.258471      2.320905
O       1.89386      1.85735      4.35136        -0.112554     -0.200887     -0.238066
O       1.80335     13.09120      4.24468         0.365762     -0.002301      0.554644
O      13.14986      1.92469      4.38928        -0.010426      0.128672      0.402380
O      13.00140     13.17005      4.42978         0.195475     -0.460290     -0.868028
O       1.85566      1.73850      8.42647         0.248090      0.570159     -0.286285
O       1.89729     13.00615      8.48006        -0.405204      0.354035      0.139285
O      13.03036      1.89766      8.42967        -0.007013     -0.169605     -0.710655
O      13.17328     13.10707      8.40395        -0.116813     -0.019799     -0.291239
O       1.80470      5.62866      0.30675        -0.055450     -0.630416     -0.260526
O       1.82171      5.68097     12.56501        -0.095608     -0.123756     -0.089144
O      13.18238      5.66378      0.22942         0.115261     -0.433535      0.722675
O      13.05741      5.54075     12.44918         0.154649      0.159601      1.229639
O       1.75903      5.75628      4.33208         0.481800     -0.286996      0.188362
O      13.05728      5.63325      4.32049        -0.089220     -0.340789     -0.178863
O       1.86318      5.66083      8.34299         0.104569     -0.299525      1.357102
O      13.03959      5.64298      8.37719         0.406370      0.109129     -0.723042
O       1.86211      9.46745      0.15177        -0.183411     -0.362569      0.271887
O       1.84618      9.28769     12.53401        -0.263164     -0.087110     -0.423889
O      13.09189      9.39639      0.21106         0.137066      0.041246     -0.368829
O      12.98011      9.44196     12.58127         0.649535     -0.420289     -0.542356
O       1.61256      9.27851      4.40917         0.951143      0.425400     -0.223750
O      13.06484      9.38061      4.32519        -0.014150      0.198688     -0.302665
O       2.01327      9.33051      8.41936        -0.450140     -0.321013      0.338932
O      13.03842      9.30036      8.43583         0.359082      0.162906      0.528042
O       5.62283      1.89242      0.21077         0.271730     -0.186880      0.772074
O       5.61179      1.83562     12.51185         0.238732      0.070036      0.839606
O       5.46971     13.11174      0.25304         0.941803     -0.045784     -0.537235
O       5.70209     12.96944     12.47934        -0.196285      0.181366      1.290862
O       5.50596      1.74549      4.36655         0.188379      0.660070      0.188934
O       5.55685     13.06497      4.43680        -0.226148      0.172015     -0.617286
O       5.54102      1.70157      8.46922        -0.222838      0.553709     -0.001035
O       5.74869     13.02770      8.42178        -0.826659      0.360707      0.974765
O       5.62483      5.49574      0.26529         0.014459      0.597861      0.192730
O       5.72291      5.69065     12.62496        -0.697289     -0.557889      0.037213
O       5.54964      5.52882      4.35923         0.106212      0.125177     -0.244273
O       5.67650      5.66347      8.41115        -0.209985     -0.105216     -0.116095
O       5.57184      9.37023      0.27873        -0.143730     -0.010272      0.437974
O       5.70332      9.14377     12.58033        -0.212919      0.929369     -0.806431
O       5.50412      9.33040      4.32586         0.240314      0.654106      0.476616
O       5.53226      9.35873      8.47748         0.229781     -0.441165     -0.022761
O       9.42890      1.98241      0.29240         0.324834     -0.768994     -0.076633
O       9.18700      1.77475     12.55624         0.700961      0.609415      0.683008
O       9.26697     13.01407      0.34484         0.335116      0.359119     -1.234023
O       9.39491     13.25541     12.52490        -0.173314     -0.749168      0.723368
O       9.25192      1.89233      4.41596         0.043574     -0.282791     -0.854737
O       9.49604     13.26991      4.42450        -0.661148     -0.135440     -0.682808
O       9.37196      1.93870      8.45982        -0.038830     -0.199940      0.015339
O       9.29706     13.02829      8.42872         0.188331      0.608127     -0.218760
O       9.31963      5.66917      0.34726        -0.037505     -0.217678     -0.845799
O       9.42102      5.62921     12.62912         0.281798     -0.079279     -0.512555
O       9.39640      5.59938      4.31750        -0.157632      0.125467     -0.201511
O       9.28202      5.49853      8.36437         0.027188      0.200634     -0.288835
O       9.14483      9.39929      0.30882         0.558729      0.271772     -0.092919
O       9.50450      9.27977     12.58807        -0.369231      0.362340      0.432108
O       9.23446      9.28925      4.28791         0.642351      0.045940      1.262983
O       9.34422      9.45575      8.33692         0.054382     -0.560239     -0.729763
O       3.70425      2.28343      2.19047         0.609844     -0.064705      0.130079
O       3.74265      1.74993     14.68172         0.209372      0.115329     -0.789258
O       3.66447     12.88540      2.24438         1.121310     -0.554193      0.604530
O       3.77966     13.40555     14.63963        -0.533387     -0.903949     -0.375645
O      14.97927      1.47183      2.41471         0.633574      0.847687     -0.578311
O      14.94617      2.09722     14.43451         0.721005      0.200219      0.979374
O      14.99497     13.35593      2.37713        -0.015461      0.359219      0.027694
O      14.96117     12.93749     14.64895        -0.036634      0.660553     -0.085704
O       3.62380      2.09502      6.44675         1.963093     -0.408237      0.297442
O       3.62602     12.80971      6.41444         1.150607      0.033972     -0.004836
O      14.94816      1.68841      6.41310         1.692602      0.128990      0.528322
O      14.97185     13.19591      6.34703         0.274021      0.313614      0.481232
O       3.67925      1.78365     10.58217         0.726179      0.635171      0.082473
O       3.80916     12.83405     10.59805        -0.855655     -0.305548     -0.040288
O      14.96508      1.71253     10.31378         1.050200     -0.334304      0.405488
O       0.01980     13.21448     10.59054         0.786712      0.182861     -0.420528
O       3.77985      5.32658      2.39570        -1.345872     -0.370783     -0.161751
O       3.77190      5.79877     14.72197        -0.765151     -0.132756     -0.411723
O      14.98489      5.87723      2.44745        -0.201164     -0.049518     -0.475146
O      14.98407      5.50474     14.59276        -0.805678     -0.758379      0.007459
O       3.70739      5.51317      6.42015        -0.189068     -0.481323      0.214869
O      14.94758      5.84851      6.46581         0.289370     -0.488894     -0.454762
O       3.73358      5.47271     10.56913         0.696659      0.069905     -0.191686
O      14.98151      5.61642     10.46340         1.115185      0.683942      0.153307
O       3.60677      9.55024      2.32013         0.552300      0.347863      0.407256
O       3.71082      9.17046     14.60122         0.087478     -0.037184     -0.377593
O      14.88370      8.93854      2.24415         1.127822      0.901740      0.084413
O      14.95945      9.56391     14.64867        -0.325260      0.026269     -0.224462
O       3.75429      9.71215      6.30817        -1.678140     -0.313909      0.137327
O      14.93214      9.23343      6.49381         0.605458     -0.273595     -0.031096
O       3.79924      9.58449     10.61382        -1.300270     -0.563572     -0.095277
O      15.00226      9.09221     10.42395         0.378606     -0.199879      0.405998
O       7.54449      1.43064      2.27182        -0.944268      0.483620     -0.106451
O       7.55065      1.88698     14.77333         0.206764      0.590172     -0.275933
O       7.45441     13.43185      2.26501        -0.739453     -0.081164      0.540918
O       7.54918     12.98749     14.57495        -0.357137     -0.341144      0.380342
O       7.41184      1.61884      6.48968        -0.300875      0.075548     -0.010650
O       7.43192     13.40889      6.41064        -0.121295     -0.019841     -0.201528
O       7.45044      1.58353     10.48032         0.301801      0.618870     -0.148297
O       7.52198     13.29381     10.53248        -0.398291     -0.353095      0.100685
O       7.46878      5.83333      2.38801         0.172084      0.445468      0.177554
O       7.51564      5.50628     14.66475         0.228774     -0.286582      0.426944
O       7.41114      5.82339      6.34777         0.567606     -0.159553     -0.029857
O       7.55215      5.68017     10.64700        -0.566001      0.139459     -0.850601
O       7.38175      9.21306      2.34190        -0.004180     -0.137032      0.408620
O       7.49678      9.59548     14.60046        -0.402587      0.175100     -0.112115
O       7.45411      9.11161      6.35617         0.308863      0.037205      0.295542
O       7.56982      9.04044     10.49862        -0.538079      0.257517     -0.021977
O      11.25812      2.05799      2.42210         0.807565      0.227659     -0.100947
O      11.32141      1.61575     14.52515        -1.229680      0.912438      0.219870
O      11.21054     12.76089      2.26277         1.015890      0.323969      0.398705
O      11.27678     13.37215     14.54235        -0.551193     -0.005921      0.653259
O      11.19612      1.98932      6.33331         0.619819      0.600469      0.473357
O      11.19930     13.00276      6.50154        -0.037135      0.187471      0.309051
O      11.23719      1.92950     10.60317        -0.201567      0.320756     -0.358436
O      11.27816     12.87984     10.56315        -0.086962     -0.144658     -0.608093
O      11.28080      5.33801      2.19682        -0.618159      0.039552      0.575335
O      11.23590      5.79700     14.80124         0.746605      0.085092     -0.317891
O      11.17701      5.29644      6.37021         0.781686      0.295965      0.140399
O      11.28011      5.50727     10.38139        -0.812038     -0.983132      0.441890
O      11.21453      9.73152      2.31694        -0.869681     -0.255663      0.007249
O      11.25442      9.21869     14.82278        -0.514847     -0.033532     -0.487441
O      11.23529      9.58520      6.53139        -0.868269     -0.496950     -0.807891
O      11.25741      9.60497     10.49898         0.199412     -0.311118     -0.047374
O       1.46740      3.77826      2.41266         0.336939     -1.210525     -0.273622
O       2.02103      3.75086     14.47348        -0.162069      0.401201      0.487209
O       2.25136      0.00047      2.14837        -0.779956      0.804221      0.199803
O       1.71529      0.05611     14.78940         0.102436     -0.903618     -1.058659
O      13.35656      3.68208      2.27489         0.389219      0.424492      0.171481
O      12.84300      3.78505     14.58272         0.338103      0.052418      0.197256
O      12.91516     14.94539      2.51464        -0.449593      0.526348     -0.753770
O      13.21310      0.10111     14.43439         0.942763     -1.182054      0.556264
O       1.77717      3.73844      6.34612        -0.957202      0.802391      0.345480
O       2.07543     14.90760      6.46672        -0.388824      1.024096     -0.096746
O      13.29587      3.76363      6.46150        -0.067861      0.429713      0.103339
O      12.98930      0.02785      6.46303        -0.160260     -0.652029      0.174019
O       1.83408      3.71754     10.47710        -0.384427     -0.050755      0.012267
O       2.04482     14.87253     10.51456        -0.340698      0.937463     -0.080494
O      13.26537      3.74565     10.38062        -0.423273      0.248949      0.141366
O      12.99461     14.92929     10.50847         0.053573      1.042562     -0.282906
O       2.11163      7.49637      2.22205        -0.051557     -0.392085      0.335747
O       1.58933      7.47697     14.72527         0.509362      0.747664     -0.387501
O      12.75101      7.56133      2.27411         0.104218     -1.224766      0.352259
O      13.26707      7.49697     14.58550         0.059776      0.029377     -0.278586
O       2.07659      7.52591      6.48987        -0.130119      0.626732     -0.103341
O      12.81845      7.48190      6.33558         0.177521      0.401381      0.048744
O       1.98019      7.41386     10.62017         0.191935      0.712722     -0.392866
O      12.93418      7.50242     10.56205         0.345483     -0.498653      0.190589
O       1.58973     11.19672      2.30027        -0.234617     -0.158514      0.342641
O       2.00964     11.25514     14.52135         0.321148     -0.282378      0.191463
O      13.56919     11.27496      2.23865        -0.788348     -0.640691      0.337975
O      12.85761     11.34401     14.55983         0.298408     -1.031280      0.150369
O       1.66515     11.24630      6.52464         0.053587     -0.660205     -0.680958
O      13.22933     11.25139      6.38476         0.147576     -0.227037      0.155170
O       1.62262     11.09510     10.50154         0.396096      1.272230      0.346102
O      13.47409     11.22763     10.52343        -0.517856     -0.993588     -0.318812
O       6.05034      3.75624      2.24096        -0.618585     -1.458294      0.668503
O       5.52110      3.70954     14.69078        -0.067736      0.097085     -0.681977
O       5.21324      0.02695      2.26562         0.409931     -0.250948      0.140671
O       5.78217     14.96413     14.66393         0.194960      0.114643     -0.147209
O       5.72651      3.67112      6.50181        -0.168780      1.120236     -0.050000
O       5.21540     14.97406      6.39727         0.217349     -0.226739      0.324436
O       5.57733      3.72570     10.66857         0.973772     -0.409396     -0.920999
O       5.49507     14.91201     10.57323        -0.471005     -0.084857     -0.114800
O       5.33252      7.49295      2.41114         0.175782     -0.402801     -0.166351
O       5.77360      7.47807     14.76938         0.217027      0.069199      0.051971
O       5.26679      7.53466      6.27033         0.329842     -1.425395      0.706815
O       5.38526      7.43690     10.63082         0.353345     -0.596713     -0.704647
O       5.71075     11.27120      2.30682         0.231775      0.039074      0.289747
O       5.40067     11.21199     14.68820         0.316729     -0.068786     -0.396239
O       5.85644     11.23886      6.47160        -0.017638     -0.529510     -0.422650
O       5.90995     11.11253     10.67089         0.228725      1.536984     -0.267421
O       9.06708      3.70698      2.32777         0.044442      0.364357      0.352914
O       9.53261      3.77534     14.68069         0.103033     -0.816657     -0.181238
O       9.75466     14.97802      2.30669        -0.344936      0.216263      0.024760
O       9.34753      0.03170     14.71155        -0.546800     -0.574683      0.509136
O       9.09431      3.69616      6.31128        -0.515367      1.481466      0.608235
O       9.46402      0.05029      6.39590         0.343065     -0.809797      0.891557
O       9.23260      3.69732     10.57916         0.058870      0.663676     -0.004747
O       9.59655     14.89446     10.54160        -0.194822      2.350437     -0.378736
O       9.56158      7.51886      2.31528         0.222370      0.096768      0.183108
O       9.18361      7.51792     14.61941        -0.069588      0.506915      0.601823
O       9.58972      7.45935      6.47046        -0.642899      0.140489     -0.472332
O       9.61886      7.46952     10.38360         0.007744     -0.418044      0.216797
O       9.18009     11.30038      2.57587        -0.908982     -0.530387     -0.207106
O       9.60941     11.28223     14.68564        -0.478791      0.683854     -0.693494
O       9.13485     11.29589      6.32549        -0.066948     -0.819041     -0.075366
O       9.24950     11.18355     10.45016        -0.718927      0.105503      0.582903
