  # total energy = -7881.00437546 
CRSYTAL
PRIMVEC
    15.3600000000000000    0.0000000000000000    0.0000000000000000
     0.0000000000000000   15.3600000000000000    0.0000000000000000
     0.0000000000000000    0.0000000000000000    17.440000000000000
PRESSURE
0.918811 0.649105 -2.44295 -0.082623 -0.356681 -0.051634
PRIMCOORD
320 1
Pb       3.94192      3.79059      4.37205        -0.178201      0.293209      0.157342
Pb       3.87426      3.81340      0.02647        -0.290125     -0.434537     -0.609660
Pb       3.77958      0.03438      4.34897         0.167458     -0.438782      0.302835
Pb       3.81236     15.28587     17.34282         0.061730      0.501347     -0.266175
Pb       0.08020      3.82124      4.34537        -0.458113     -0.073405      0.195878
Pb       0.03541      3.83356      0.00425         0.087020      0.246711     -0.477931
Pb       0.08433      0.03579      4.37746        -0.505039     -0.450496     -0.231762
Pb      15.24765      0.09269     17.35658         0.059220     -0.684109      0.274500
Pb       3.75021      3.83779      8.66774        -0.336916      0.299101     -0.473342
Pb       3.74253     15.28953      8.67434         0.128992     -0.064161     -0.377753
Pb      15.11689      3.94927      8.65875         1.192355     -0.311419     -0.156502
Pb      15.25512     15.27463      8.73848         0.147434      0.590052     -0.953307
Pb       3.99083      3.65294     13.02958        -0.900494      0.688051      0.253086
Pb       3.80616      0.00416     12.94730         0.226943     -0.299515      0.302715
Pb       0.02881      3.76996     13.01264        -0.156692      0.667047      0.238956
Pb      15.26956     15.19744     13.03546         0.134055      0.199097      0.014428
Pb       3.84049      7.68104      4.31348        -0.051034      0.119076     -0.087472
Pb       3.80378      7.66217      0.03721        -0.316694     -0.034526     -0.544542
Pb       0.11257      7.72198      4.27824        -0.571748      0.202494      0.037634
Pb       0.03728      7.69841      0.05494         0.022206     -0.126540     -0.194702
Pb       3.74440      7.67941      8.63380         0.147173     -0.071893     -0.270603
Pb      15.23581      7.64837      8.64846         0.383518     -0.111884      0.194391
Pb       3.90245      7.58002     13.07980        -0.485050     -0.016122     -0.218188
Pb      15.33647      7.67147     13.05473         0.188204     -0.094938      0.490322
Pb       3.81462     11.51637      4.32765        -0.137751      0.137714     -0.278146
Pb       3.87016     11.56394     17.41893        -0.133647     -0.183727     -0.194943
Pb       0.09403     11.55717      4.28838        -0.116834     -0.084896     -0.542404
Pb      15.23865     11.47576     17.41280         0.049874      0.147284      0.301242
Pb       3.85609     11.45301      8.67399         0.355411      0.236023     -0.247464
Pb       0.03046     11.49119      8.72203        -0.392696     -0.243761     -0.029302
Pb       3.90124     11.37264     13.00945        -0.036846      0.415785     -0.356157
Pb       0.14440     11.45651     13.01179        -0.309419      0.288397      0.426397
Pb       7.64520      3.80826      4.18180         0.690673     -0.423795      1.624151
Pb       7.71021      3.79606      0.06276        -0.090030     -0.045755     -0.473309
Pb       7.63900     15.30775      4.40600         0.417113      0.162197     -0.176960
Pb       7.51183      0.00158     17.36710         0.520291     -0.353746      0.063583
Pb       7.48531      3.92011      8.66487         0.638034     -0.305459     -0.002954
Pb       7.66593      0.04243      8.76840         0.033216     -0.266780     -0.612501
Pb       7.81196      3.87709     13.00735        -0.366771      0.273968      0.479898
Pb       7.70501      0.07610     12.94829         0.191591     -0.903600      0.579134
Pb       7.72041      7.60167      4.32414        -0.082618      0.533820      0.081286
Pb       7.57480      7.72646      0.02794         0.646457     -0.036586     -0.524720
Pb       7.73809      7.59711      8.72788         0.087809      1.139969      0.041321
Pb       7.73159      7.71068     13.11146        -0.631965     -0.104209     -0.175816
Pb       7.63884     11.40915      4.35030         0.080147      0.285344     -0.031117
Pb       7.62077     11.63194     17.25435        -0.169362     -0.601552      0.967604
Pb       7.72923     11.57022      8.71181        -0.091785     -0.347272     -0.275819
Pb       7.75529     11.61136     12.94213        -0.206441     -0.440294     -0.084414
Pb      11.48724      3.73866      4.28434         0.477474      0.036554     -0.099358
Pb      11.64219      3.87013      0.15700        -0.254431      0.260576     -0.539952
Pb      11.65496     15.30861      4.37227        -0.291696      0.078444      0.133191
Pb      11.24375     15.26815      0.03368         0.609319     -0.100779     -0.260153
Pb      11.50641      3.85723      8.61450        -0.062583     -0.288274      0.714077
Pb      11.43888      0.06581      8.73351         0.288543     -0.305957     -0.083168
Pb      11.48982      3.74425     12.99804         0.358701      0.031017      0.467813
Pb      11.43958     15.28394     13.11700         0.183882      0.254755     -0.285439
Pb      11.57526      7.50769      4.35610         0.285741      0.542475     -0.664228
Pb      11.42134      7.73656     17.42413        -0.049707     -0.083875     -0.295675
Pb      11.62111      7.70671      8.64719        -0.774285      0.213980      0.112848
Pb      11.36574      7.54588     13.16080         0.097574      0.744876      0.290615
Pb      11.48345     11.47153      4.25090         0.241748     -0.098997      0.236298
Pb      11.41216     11.48354     17.35316         0.123297     -0.002342      0.081181
Pb      11.42825     11.41188      8.68175        -0.074402     -0.061764     -0.153452
Pb      11.59164     11.49846     13.03739        -0.492104     -0.360659      0.620916
Ti       1.94270      1.85918      2.36566        -0.415187      1.053274     -1.750287
Ti       1.85757      1.90615     15.33855         1.325489      0.635549      0.411474
Ti       1.95178     13.49060      2.26542        -0.464395     -0.970372      0.373891
Ti       1.85690     13.48004     15.36719         0.452845     -0.531328     -0.712834
Ti      13.49644      1.84130      2.24833        -0.284827      0.054955      0.878985
Ti      13.34476      1.80885     15.51674        -0.780552      0.862887     -1.567740
Ti      13.37963     13.42528      2.33513         1.554608     -0.246796     -1.374877
Ti      13.46760     13.38180     15.34088        -0.856935     -0.670342      0.615047
Ti       1.87479      1.93377      6.64977        -0.581511      0.542415      1.750504
Ti       1.86626     13.38893      6.70705         1.149336      0.518924     -1.097041
Ti      13.37692      1.90280      6.66625         1.521310     -0.163741     -1.797934
Ti      13.39412     13.38070      6.65714        -0.027231      0.794816     -0.592343
Ti       1.84733      1.96811     10.95587         0.778625      0.465575     -1.890499
Ti       1.93837     13.57345     11.01241         0.340540     -1.706630      0.460031
Ti      13.40174      1.92634     11.06695        -0.623037     -0.099289     -0.503453
Ti      13.42684     13.39879     11.01529        -0.843089      0.101418      1.249938
Ti       1.89320      5.67270      2.42763         0.529119      1.228798     -0.518630
Ti       1.89929      5.77884     15.44790        -0.235861     -0.634037     -1.153523
Ti      13.48418      5.67482      2.28792        -0.822032      0.632122      0.363453
Ti      13.35199      5.72208     15.40070         0.370848      0.048155     -0.121544
Ti       1.89643      5.79853      6.56636        -0.389451     -1.477461      0.054770
Ti      13.37910      5.81526      6.63872         1.095135     -0.807806     -0.790786
Ti       1.85915      5.76016     11.01363         0.665977      0.522783     -0.421442
Ti      13.42671      5.86819     11.09480         0.244988     -0.654638     -0.712104
Ti       1.95242      9.58275      2.23927        -0.711744      0.200961      1.248113
Ti       1.87220      9.65527     15.36836         0.200527     -0.528764      1.247208
Ti      13.40078      9.58841      2.31308         0.716538     -0.627973     -0.288144
Ti      13.39594      9.55247     15.42689        -0.553354     -0.399600     -0.942397
Ti       1.80486      9.60485      6.73785         1.126705     -0.204410     -1.384462
Ti      13.43650      9.65792      6.60196        -0.978788     -0.577043     -0.512980
Ti       1.79965      9.58570     11.00439         0.391893     -0.480969     -1.228891
Ti      13.30779      9.65009     11.11265         0.647497     -0.499162      0.407700
Ti       5.74887      1.82700      2.35945         0.014788      0.464464     -0.179441
Ti       5.82187      1.92360     15.33444        -1.420412     -0.245840     -0.726692
Ti       5.75648     13.45985      2.26998        -0.820643     -0.723963     -0.420107
Ti       5.65871     13.39843     15.27322         0.179542      0.239588     -0.150484
Ti       5.71085      1.97339      6.74158        -0.057132     -0.436414     -1.799734
Ti       5.84403     13.47907      6.65603        -0.284877     -0.996259      1.524595
Ti       5.83264      1.94554     11.07541        -1.037672     -0.801815     -0.843505
Ti       5.80274     13.40803     11.00522         0.030073     -0.334622     -0.263752
Ti       5.81769      5.73182      2.32495        -1.292617      0.290936      0.594326
Ti       5.71913      5.70074     15.38665         0.466105      0.411525     -0.157629
Ti       5.76485      5.88408      6.62937        -1.595951     -0.310286     -0.665828
Ti       5.74513      5.76471     11.02759        -0.394080      0.450457     -1.217904
Ti       5.78058      9.59180      2.31425        -0.556828      0.900774      0.096051
Ti       5.65754      9.52583     15.32954        -0.052386      0.574684     -0.631201
Ti       5.76733      9.63151      6.67059         0.010131      0.698624      0.856922
Ti       5.59986      9.51209     10.95023         1.746513      0.647083     -0.359201
Ti       9.65117      1.79635      2.40208        -0.296739      0.098942     -0.518680
Ti       9.58897      1.93510     15.40541        -0.367515     -0.914907     -0.685907
Ti       9.60307     13.38789      2.28959        -0.867040      0.035279     -0.905280
Ti       9.54049     13.43631     15.38397         0.286628      0.152643      0.071237
Ti       9.59217      1.95316      6.72621        -1.087811     -0.460391     -0.896336
Ti       9.73337     13.40956      6.65258        -1.373629     -0.240178      1.040969
Ti       9.59769      1.93403     10.99365         1.608135     -0.411402     -1.375918
Ti       9.67693     13.41252     10.95680        -0.810438     -0.594835      0.097063
Ti       9.61593      5.76333      2.31051         0.747333     -0.201571     -1.748686
Ti       9.51171      5.64784     15.44191         0.620945      1.588906      0.026503
Ti       9.61403      5.77072      6.66636        -0.225110      0.010053      0.940341
Ti       9.61496      5.80632     11.00209        -0.684800      0.060280      0.385109
Ti       9.57950      9.57442      2.32231         0.282597     -0.212091     -1.097133
Ti       9.41531      9.57856     15.38733         1.734574     -0.535935     -0.275794
Ti       9.62416      9.56570      6.49380        -0.685747      0.454216      0.207871
Ti       9.52416      9.56622     11.08879        -0.463697      0.057470     -1.105079
O       1.94441      1.87179      0.56363        -0.075689     -0.236807      0.443370
O       1.96781      1.94712     13.57347        -0.356537      0.166085     -0.045429
O       2.08530     13.48813      0.49684        -0.558853      0.272192     -0.371358
O       1.88078     13.57676     13.59173        -0.222873     -0.382624     -0.518581
O      13.44651      1.81596      0.46736         0.038516     -0.106716     -0.450594
O      13.21989      1.88371     13.70137         0.673625     -0.008922      0.724712
O      13.55886     13.44815      0.50134        -0.257107     -0.091674      1.675930
O      13.41284     13.23537     13.54814         0.145747      0.526624      0.922774
O       1.89738      2.02132      4.90197        -0.231831     -0.556635     -1.014011
O       1.94048     13.46635      4.89164        -0.226687     -0.405294      0.876428
O      13.49079      1.89219      4.81984        -0.331722     -0.008284      1.778252
O      13.25115     13.43353      4.85572         0.540690     -0.096937      1.082401
O       1.90188      1.93004      9.10932         0.152089     -0.115042      1.731617
O       1.90210     13.53372      9.25399        -0.553626     -0.090893      0.012912
O      13.23791      1.84286      9.29262         0.604210      0.179529      0.299356
O      13.30442     13.58620      9.27877         0.539230     -0.400671     -0.039225
O       1.88714      5.91498      0.66553         0.080815     -0.500675     -0.626375
O       1.80927      5.64623     13.65008         0.066320      0.243143      1.100482
O      13.29322      5.59254      0.50756         0.568421      0.376010      0.550909
O      13.51485      5.66089     13.58980        -0.575913      0.193914      1.033691
O       1.78665      5.67740      4.77762         0.289964      0.272821      0.146912
O      13.30877      5.76811      4.84470        -0.041806     -0.249331      0.597142
O       1.85572      5.90529      9.21515        -0.037408     -0.440058      0.655427
O      13.50065      5.71563      9.22429        -0.494215      0.625530      1.972617
O       1.88098      9.50789      0.51625         0.306090     -0.141531     -1.401029
O       1.90497      9.53926     13.62444         0.003522      0.340594     -0.269879
O      13.41645      9.51424      0.52748         0.031270      0.149884      0.478308
O      13.42970      9.66543     13.61900        -0.126265      0.007994      0.557701
O       1.78853      9.69300      4.93564         0.121361     -0.109204      0.600137
O      13.51323      9.54090      4.87233        -0.168736      0.304841     -0.635547
O       1.65616      9.41211      9.15004         0.612063      0.617192      1.223292
O      13.36069      9.60949      9.38101        -0.045228     -0.151247     -1.579646
O       5.84654      1.91393      0.58534        -0.257705      0.056157      0.387339
O       5.81322      1.99458     13.49495         0.053168     -0.485572      0.761432
O       5.63090     13.43982      0.46261        -0.054973      0.080537      0.426685
O       5.62645     13.39502     13.49972         0.424166     -0.207171      0.281097
O       5.64106      1.90789      4.85832         0.583167     -0.153042      1.521768
O       5.75330     13.42971      4.90336        -0.062638      0.153547     -0.178494
O       5.76689      2.00663      9.27786         0.222173     -0.068436      0.619186
O       5.87679     13.37622      9.24162        -0.262319      0.285479      0.395666
O       5.74664      5.74416      0.55723         0.313604      0.068947      0.384930
O       5.88611      5.76675     13.63187        -0.741085     -0.240221     -0.194213
O       5.68925      5.80146      4.82251         0.591614      0.155724      0.676570
O       5.56671      5.82494      9.17125         0.488630     -0.344711      1.447733
O       5.77717      9.55460      0.55983        -0.189441     -0.172828      0.042389
O       5.65255      9.49760     13.51390        -0.154089      0.405116      0.779288
O       5.71594      9.74570      4.92833         0.006412      0.091181     -1.188862
O       5.64676      9.58273      9.14359        -0.091616     -0.445257      1.134746
O       9.56888      1.79339      0.58936        -0.188769      0.344354      1.533675
O       9.52118      1.90132     13.58494         0.296894     -0.111084      0.879933
O       9.45488     13.50054      0.45498         0.594184     -0.280449      1.460522
O       9.49350     13.38814     13.59836         0.230080      0.144682      0.896220
O       9.42347      1.96285      4.90963         0.576027     -0.193474      1.138374
O       9.70018     13.28741      4.92973        -0.082230      0.400819     -0.730527
O       9.61453      1.84222      9.16000        -0.033805      0.252831      1.409794
O       9.61673     13.26723      9.17180         0.460238      0.441676      0.220681
O       9.55227      5.82108      0.47052        -0.111016     -0.700639      1.286162
O       9.43788      5.72728     13.63707         0.588472      0.081279      0.266246
O       9.61089      5.77057      4.91741         0.102878     -0.208156      0.076309
O       9.53051      6.00058      9.26840         0.500708     -0.376108     -0.541126
O       9.46864      9.57773      0.47820         0.068066     -0.134506      1.732852
O       9.53426      9.56042     13.55121        -0.370921     -0.052851      1.035171
O       9.67483      9.70963      4.70030        -0.478683     -0.635838      0.615918
O       9.44565      9.55316      9.27853         0.864036     -0.245774      0.374762
O       3.77920      1.97546      2.77316         1.054498      0.119052     -0.156143
O       3.91047      1.94422     15.77552        -0.552429     -0.203416     -0.047646
O       3.75811     13.51651      2.72430         0.798727     -0.213854      0.173642
O       3.75955     13.42726     15.61235         0.452460     -0.431474      0.714724
O      15.33133      1.76820      2.64667         0.374469      0.273632      0.217770
O      15.28573      1.97457     15.77411         0.687932     -0.396402     -0.163516
O      15.32267     13.45263      2.79921         0.420394      0.450686     -0.280172
O      15.33344     13.29698     15.69519        -0.700525      1.009013      0.179317
O       3.81680      1.91600      6.96647        -0.195015      0.045189      0.650650
O       3.78077     13.24474      7.17636         0.518018      0.751290     -0.380413
O      15.32189      1.89626      7.04335        -0.354533     -0.481064      0.158975
O      15.33113     13.41122      7.05334        -0.912843      0.079574      0.317975
O       3.87814      1.80927     11.32418        -0.037775      0.488166      0.273824
O       3.82622     13.57055     11.31668        -0.093237      0.125307      0.008359
O      15.33486      2.03003     11.25398        -0.461176     -0.342150      0.444927
O      15.29481     13.26172     11.51646         0.482446      1.213804     -0.824934
O       3.80619      5.68869      2.70554         1.344547      0.381973      0.091917
O       3.83189      5.63027     15.80252         0.104822      0.661545      0.119298
O      15.32830      5.76653      2.73986        -0.649648     -0.248577     -0.264372
O      15.28829      5.79774     15.91992         0.258941     -0.511692     -0.237717
O       3.78921      5.66018      6.92365        -0.123584      0.372219      0.357948
O      15.27978      5.78153      7.04824        -0.061929      0.057632     -0.072343
O       3.78205      5.72716     11.40308         0.720446      0.081075      0.165311
O      15.28683      5.71446     11.55456         0.310314     -0.340392     -0.620515
O       3.79062      9.57193      2.68914         1.099183     -0.150469      0.171241
O       3.80350      9.63219     15.79513        -0.818673      0.176723     -0.004031
O       0.05517      9.52464      2.58684        -0.974050      0.244764      0.474297
O      15.26138      9.40746     15.82454         0.894153      0.385058     -0.195403
O       3.77004      9.64197      6.98644        -0.773880      0.272578      0.502224
O      15.22562      9.54817      7.04205         0.935344      0.186881      0.581302
O       3.75133      9.45807     11.39361         0.034644      0.456056     -0.096561
O       0.00015      9.74232     11.42976         0.229415     -0.103830      0.067719
O       7.64757      1.79203      2.85973        -0.004175     -0.051073     -0.684338
O       7.62110      1.81232     15.85675         0.036084      0.562881     -0.135495
O       7.59159     13.48550      2.62430         0.452289     -0.034273      0.340424
O       7.66717     13.37122     15.74885        -1.175658      0.541876     -0.480510
O       7.66058      1.89647      7.24013        -0.375584      0.069827     -0.601036
O       7.78830     13.39497      7.02226        -0.903491      0.859685     -0.055492
O       7.84974      1.87669     11.51861        -2.370591      0.108211     -0.783158
O       7.76089     13.39439     11.34445        -0.861335     -0.171739      0.308097
O       7.75265      5.81441      2.73116        -1.477042     -0.267336     -0.151930
O       7.67150      5.83211     15.75609        -0.949550     -0.212151      0.686589
O       7.57497      5.76416      7.18935         0.748412      0.422811     -0.903573
O       7.70945      5.78076     11.29887        -1.605886     -0.557801      0.103476
O       7.70808      9.51284      2.76309        -0.392455      0.535875     -0.018211
O       7.56015      9.59801     15.81537         0.158806     -0.288918     -0.306081
O       7.64959      9.44527      6.88183         0.360630      0.200840      0.106483
O       7.65233      9.48124     11.29259        -1.198363      0.386087      0.630124
O      11.63060      1.86497      2.76041        -2.444089      0.069049     -0.217018
O      11.41226      1.74349     15.73734         0.241948      0.535802      0.504278
O      11.48539     13.41474      2.71717        -0.351802     -0.349355     -0.499062
O      11.53139     13.48505     15.85275        -1.090305     -0.882404     -0.578629
O      11.50270      2.03602      6.97693        -0.425290      0.130003      0.187884
O      11.56664     13.43886      7.15172        -0.487375     -0.503851     -0.051571
O      11.48980      1.84361     11.45056        -0.294108      0.210635      0.225346
O      11.45016     13.32597     11.65113         0.946522      0.489451     -1.123589
O      11.46509      5.67636      2.65372         0.340839     -0.496462      0.408926
O      11.46880      5.67760     15.84080        -0.314026     -0.299381     -0.352141
O      11.53804      5.67838      7.24391        -1.148420      0.686715     -0.992332
O      11.48118      5.90656     11.50425         0.815209     -0.232967     -0.481904
O      11.55914      9.57126      2.61586        -1.089542      0.428523      0.163353
O      11.32812      9.69377     15.90655         0.879444     -0.386288     -0.541241
O      11.50330      9.58054      6.86493        -0.298418      0.067779      0.834328
O      11.47964      9.46057     11.43723        -0.473303     -0.109466      0.256692
O       1.84131      3.82188      2.68042        -0.287725     -0.715098      0.133847
O       2.05904      3.79608     15.94788        -1.493723      0.132340     -0.323176
O       1.91286      0.03785      2.76753        -0.005374     -0.650067      0.177285
O       1.88620     15.35917     15.57292        -0.287723      0.825496      1.041484
O      13.39802      3.73159      2.66557         0.276832      0.774410     -0.176004
O      13.29710      3.77227     15.96703         0.465313     -0.188395     -0.582989
O      13.28973     15.31295      2.74468         0.866929     -0.104396     -0.271231
O      13.30100     15.21675     15.80099         1.399786      1.155640     -0.317116
O       1.75094      3.85724      6.92898         0.528271     -0.294958      0.542330
O       1.94496     15.25089      7.03553        -0.179345      1.157594      0.161767
O      13.44251      3.87037      7.11732        -0.433867     -0.629048     -0.311269
O      13.33616      0.01357      7.03619         0.232009     -0.176050      0.147868
O       1.97539      3.87764     11.33730        -0.405657     -1.121447      0.101681
O       1.78464      0.07669     11.36818        -0.219841     -0.290721      0.273102
O      13.28998      3.85485     11.51112         0.361861     -0.208212     -0.602633
O      13.35540     15.29527     11.54875         0.534288      0.386677     -0.277302
O       1.87124      7.67273      2.78869         0.668068      0.002781     -0.034098
O       1.97884      7.65113     15.82155        -0.079793      0.077175      0.040204
O      13.26504      7.57638      2.70580         0.858961      0.351407     -0.216454
O      13.19434      7.66309     15.64064         0.206379     -0.630826      0.348910
O       1.82467      7.61061      6.89458         0.175037      1.353385      0.399395
O      13.29673      7.65070      7.01525         0.226689      0.805527      0.160315
O       1.84178      7.65362     11.46172        -0.306090      0.437177     -0.012897
O      13.65745      7.78804     11.43037        -0.817559     -1.977559     -0.088992
O       1.98033     11.55929      2.62942        -0.525093     -0.301262      0.153056
O       1.71863     11.53099     15.76656         0.841057     -0.913273     -0.198285
O      13.50753     11.50949      2.76778        -0.363099     -0.313836     -0.437525
O      13.41948     11.38846     15.97937        -0.264983      1.330409     -0.720688
O       1.80846     11.48160      7.17986        -0.366936     -0.192161      0.046792
O      13.33697     11.51818      7.15672         0.552306      0.012241     -0.291672
O       2.04333     11.57946     11.41178        -0.400837     -0.716216     -0.190671
O      13.32717     11.50677     11.35210        -0.068193      0.576686      0.196325
O       5.85347      3.84652      2.79124        -0.584070      0.107451     -1.023553
O       5.78094      3.81184     15.76440         0.451854      0.082600      0.265150
O       5.52429     15.35214      2.66248         0.848933      0.123391      0.148839
O       5.63224     15.30724     15.65649         0.691213     -0.004379      0.131667
O       5.68191      3.84584      6.98926         0.486653      0.068831      0.429210
O       5.70710     15.32705      7.17131         0.230172      0.327410     -0.313719
O       5.77286      3.81896     11.53166         0.392946      0.190511     -0.921387
O       5.87516     15.30372     11.39935         0.089004      1.147923     -0.092435
O       5.80107      7.78190      2.80816        -0.316197     -1.909477     -0.256204
O       5.60254      7.70413     15.65601         0.295999     -1.049272      0.751718
O       5.52575      7.76790      6.90563         0.488991     -1.846353      0.252089
O       5.65380      7.63843     11.44949         0.392274     -0.490310     -0.283983
O       5.63615     11.55981      2.62700         0.376843     -0.358581      0.286225
O       5.66674     11.47760     15.82415         0.146489      0.686119     -0.538402
O       5.83513     11.57164      7.19216        -0.266278     -0.364381     -0.497223
O       5.70914     11.46586     11.36879        -0.264541     -0.126473      0.126542
O       9.55322      3.75690      2.80983         0.037813     -0.193713     -0.869676
O       9.43340      3.77530     15.77710         0.150671      0.092101      0.319484
O       9.57382     15.22270      2.80974         0.187021      1.202377     -0.036140
O       9.44097      0.04257     15.93666         0.412269     -1.079733     -0.820088
O       9.51783      3.90785      7.24398         0.038939     -0.205534     -0.628213
O       9.71930      0.01847      7.06748        -0.513326      0.081198     -0.293573
O       9.55756      3.82893     11.43415         0.721064      0.241915     -0.651987
O       9.65449     15.24098     11.34324        -0.146447      1.436800      0.082837
O       9.64259      7.62503      2.64909        -0.131226      0.598802      0.342823
O       9.63253      7.65827     15.82743        -0.595589      0.383075     -0.521986
O       9.59770      7.68629      6.96993         0.186497     -0.868531      0.220666
O       9.39909      7.61847     11.54875         1.488864      0.333183     -0.065979
O       9.57222     11.50039      2.73849        -0.145088      0.174489     -0.562809
O       9.50495     11.51254     15.82319         0.062474      0.392642     -0.446753
O       9.48410     11.42184      6.97606         0.872024      0.201208      0.342306
O       9.55741     11.46859     11.38295         0.275343     -0.112050      0.253784
