  # total energy = -7876.88941227 
CRSYTAL
PRIMVEC
    15.2000000000000000    0.0000000000000000    0.0000000000000000
     0.0000000000000000   15.2000000000000000    0.0000000000000000
     0.0000000000000000    0.0000000000000000    17.000000000000000
PRESSURE
8.24777 8.03568 4.23813 -0.073522 -0.063307 0.080288
PRIMCOORD
320 1
Pb       3.92790      3.69162      4.17915         0.044651      0.059068      0.027633
Pb       3.57001      3.64367     16.91491         0.907415      0.436243      0.072413
Pb       4.01794     14.91938      4.10679        -0.787454      1.322375      0.096052
Pb       3.65735     15.12689     16.93338         0.199182      0.584754      0.529483
Pb      15.17439      3.56331      4.24509         0.367923      0.418001     -0.157058
Pb      15.05925      3.91496     16.96726         0.019459     -0.849859     -0.478220
Pb      15.14721     14.88450      4.12376         0.439029      1.019453      0.294655
Pb      15.08278      0.02306      0.07945         0.208620      0.394401     -0.299013
Pb       3.47265      3.89082      8.52907         0.569588     -0.145994     -0.086325
Pb       3.79149      0.13394      8.23365         0.060376     -0.333222      1.187520
Pb      15.09254      3.82604      8.34950         0.534333      0.022410      0.905536
Pb       0.15428      0.12550      8.25476        -0.254746     -0.435008      1.411511
Pb       3.74192      3.76472     12.78724        -0.205003      0.515700     -0.140939
Pb       3.79727      0.00563     12.70901        -0.445444     -0.213991     -0.716863
Pb      15.09401      3.86188     12.79632         0.057726      0.163888     -0.323313
Pb      15.04483     15.14186     12.63089         1.002217      0.173377      0.003401
Pb       3.90608      7.42709      4.14008        -0.103807      0.129937      0.279753
Pb       3.63728      7.46744     16.93375         0.678428      0.156425     -0.641987
Pb       0.00527      7.35893      4.25677        -0.331799      1.717847      0.305944
Pb      15.08954      7.52443      0.20427         0.243942      0.663648     -1.048819
Pb       3.77230      7.48763      8.58970        -0.076412      0.519733     -0.386114
Pb       0.08239      7.69091      8.47452        -0.342810     -0.299958      0.266188
Pb       3.77195      7.76756     12.89908         0.480674     -0.156358     -0.530479
Pb      15.17713      7.78532     12.91707         0.046822     -0.626435     -0.911717
Pb       4.10639     11.30874      4.13330        -1.014684     -0.718448      0.303901
Pb       3.63904     11.38947     16.67183         0.319523     -0.137038      1.308486
Pb       0.09578     11.24504      4.24269        -0.320741     -0.535588     -0.359961
Pb      15.02580     11.35770      0.01868         0.549286      0.080934      0.144619
Pb       3.81764     11.40631      8.39550        -0.117249     -0.482577      0.123324
Pb       0.15084     11.38974      8.40179        -0.110183     -0.318679     -0.523728
Pb       3.91269     11.59097     12.62561        -0.485012     -1.100773      1.039832
Pb       0.02829     11.60831     12.68512         0.045132     -0.264830      0.343650
Pb       7.62999      3.87596      4.34888        -0.524905      0.003575     -0.171028
Pb       7.58001      3.78288     16.92350        -0.355766     -0.118005      0.180471
Pb       7.58266      0.00143      4.24257        -0.024750      0.242524     -0.196558
Pb       7.49478     15.19102     16.90545         0.481504      0.700652      0.361041
Pb       7.30373      3.77045      8.69406         0.634122     -0.328786     -0.446943
Pb       7.52094      0.06005      8.62600         0.286480     -0.059982      0.011511
Pb       7.62597      3.69767     12.68545         0.278527      0.916183      0.418629
Pb       7.53858     15.07973     12.73592         0.060215      0.327228     -0.364987
Pb       7.39574      7.52527      4.16662         0.738611      0.084803      0.317827
Pb       7.76875      7.43840      0.02141        -0.647433     -0.216171     -0.271334
Pb       7.54543      7.49748      8.62637        -0.013034      0.582432     -0.567339
Pb       7.70343      7.62563     12.76346        -0.602706     -0.255759      0.485083
Pb       7.66482     11.50284      4.22622         0.076058     -0.733153      0.119008
Pb       7.42460     11.29939     16.98889         0.767224      0.585198     -0.604756
Pb       7.66322     11.26403      8.52596         0.259097      0.157385     -0.172682
Pb       7.73092     11.50782     12.79886        -0.433884     -0.829494      0.030396
Pb      11.31180      3.79978      4.38865        -0.262207     -0.236691     -0.340610
Pb      11.33526      3.91102     16.92484         0.073398     -0.332975      0.117416
Pb      11.28236     15.17680      4.29231        -0.148426      0.057949     -0.484721
Pb      11.28075      0.11280      0.05755        -0.377262     -0.192597     -0.155997
Pb      11.33114      3.79038      8.48563         0.432720      0.363128      0.544641
Pb      11.49866     15.14174      8.63924        -0.394597     -0.115029     -0.253876
Pb      11.46285      3.79283     12.60017        -0.209076      0.818035      0.623169
Pb      11.35162      0.01893     12.67990        -0.085411     -0.268063      0.150329
Pb      11.29833      7.36986      4.33620         0.129749      1.016303     -0.074540
Pb      11.44312      7.64681      0.11210        -0.377350     -0.582574     -0.500067
Pb      11.50801      7.66485      8.48264        -0.174984     -0.244739      0.178099
Pb      11.54309      7.76615     12.76107        -0.431363     -0.553523     -0.925487
Pb      11.40745     11.50737      4.28742         0.036478     -0.718931     -0.103662
Pb      11.34411     11.20638      0.11484         0.156724      1.405279     -0.718672
Pb      11.44341     11.30987      8.39438        -0.203339      0.228149      0.506802
Pb      11.50101     11.37745     12.83225        -0.422644      0.332132     -0.566825
Ti       1.89199      1.84298      2.26885         0.293318     -0.802642      0.310140
Ti       1.85263      1.88593     14.93425        -1.364153      0.102578      0.238661
Ti       1.85913     13.18318      2.23112        -0.264140     -0.355904      0.542351
Ti       1.79368     13.39388     14.99518        -0.500844     -0.965013     -1.159816
Ti      13.23000      1.87047      2.25662        -0.118594      0.236944     -0.675113
Ti      13.21831      1.88488     15.00641         0.618346      0.723924      0.760075
Ti      13.14343     13.31306      2.26827         0.773872     -1.599535     -0.455896
Ti      13.21070     13.34361     15.05333        -0.490726     -0.782332      0.424223
Ti       1.90852      1.90588      6.34721         0.419728      1.137341     -0.547111
Ti       1.92488     13.23733      6.34346         0.650850     -0.609927      0.560042
Ti      13.31325      1.85395      6.36866        -0.120382     -0.074618      0.821896
Ti      13.36966     13.33241      6.56808        -0.725390     -1.243230     -0.157766
Ti       1.86256      1.96745     10.76764         0.475592     -0.451832      0.350978
Ti       1.93338     13.31372     10.55450        -0.340255      0.884782      0.867385
Ti      13.30844      1.84206     10.65649         0.072759      1.290268      0.342242
Ti      13.27672     13.29194     10.63638        -0.083173     -0.732212     -0.748746
Ti       1.87322      5.62559      2.20068         0.949824     -0.246835      1.524609
Ti       1.83448      5.69686     14.93487         0.192278      1.150518     -0.246679
Ti      13.32296      5.57430      2.33892        -1.227890      1.849068     -0.111608
Ti      13.24053      5.79757     14.99963         0.285141     -1.331678     -1.207889
Ti       1.82832      5.77445      6.43858         0.883828     -0.963888      0.069985
Ti      13.36003      5.67227      6.54124        -1.007502      1.051369      1.291084
Ti       1.83642      5.79392     10.88058         0.311517     -0.421658      0.888028
Ti      13.30301      5.71486     10.68490         0.163622      0.569923     -0.565794
Ti       1.96244      9.38495      2.20071        -0.684123      1.115625      1.027517
Ti       1.84350      9.56916     14.90345        -0.385651     -0.430151      1.975821
Ti      13.22942      9.43368      2.22452         0.757711      0.099786      2.136474
Ti      13.29885      9.52550     14.96467         0.599641      0.211574      0.094833
Ti       2.02917      9.41417      6.34772        -0.351381      0.469626      0.664515
Ti      13.36386      9.48256      6.45785         0.620986     -0.478810     -0.410488
Ti       1.82605      9.55974     10.73564         1.640306     -0.364930      0.716339
Ti      13.38124      9.60793     10.64500        -1.816215     -1.276669      3.205842
Ti       5.72589      1.84992      2.14032        -0.544415      0.435517     -0.101270
Ti       5.63828      1.97348     14.84135         0.389566     -0.147648      1.153318
Ti       5.61361     13.18241      2.01079         1.067362      1.411133     -1.048141
Ti       5.62782     13.40952     15.01004         0.526801     -1.227002     -0.379781
Ti       5.74238      1.88744      6.54966         0.249395      0.786686     -0.984347
Ti       5.76003     13.25553      6.52875        -0.443852     -0.143036      0.220904
Ti       5.71773      1.90402     10.88553        -1.174867     -1.520777     -0.806724
Ti       5.70588     13.21895     10.61084         0.078025      1.387917      0.960314
Ti       5.69247      5.62122      2.08035        -0.160961     -0.821761     -0.523273
Ti       5.68284      5.66207     14.91414        -0.532530      0.499860      1.304620
Ti       5.68757      5.61815      6.63157        -1.084308      1.259405     -1.238362
Ti       5.62499      5.67480     10.78286        -0.418143      0.843339      0.854441
Ti       5.73705      9.46302      2.01592         0.097739     -1.087457     -0.380805
Ti       5.72873      9.47061     15.05658        -0.573998     -0.478530     -0.934150
Ti       5.76268      9.46119      6.58359        -0.361148     -0.788610     -1.114702
Ti       5.73653      9.48852     10.76836        -0.819025     -0.953652      0.759649
Ti       9.41814      1.94720      2.31534         0.008844     -0.522942     -1.138787
Ti       9.46949      1.92153     14.94262        -0.584647     -0.136919      0.078736
Ti       9.37857     13.26475      2.17320        -0.062779      1.227066     -0.156172
Ti       9.40966     13.26142     15.00575         1.524997     -0.384244      0.172380
Ti       9.57758      1.87210      6.63004        -2.110807     -0.199979     -0.006878
Ti       9.53033     13.32781      6.63917        -0.566186     -0.472648     -0.166236
Ti       9.51959      1.96386     10.73292         0.172472     -0.325842      0.275605
Ti       9.47905     13.32048     10.72369         0.841345     -0.809089     -0.606934
Ti       9.52507      5.67148      2.33619        -1.682695     -0.262799     -0.528791
Ti       9.51201      5.64203     14.86868        -0.562283      0.656848      1.119153
Ti       9.45526      5.69789      6.72523        -0.094248      0.535626     -1.772272
Ti       9.45003      5.78647     10.68355         1.283353      0.112300      0.828927
Ti       9.49214      9.51502      2.19636        -0.203174     -0.927430      1.663776
Ti       9.51145      9.42881     15.07444        -0.139142      0.313507     -0.811643
Ti       9.50684      9.45782      6.42396        -0.651845     -0.594082     -0.437129
Ti       9.48483      9.45911     10.76320         1.585745      0.763358     -0.093431
O       1.96269      1.69351      0.50013        -0.272084      0.601338     -0.540482
O       1.88215      1.86137     13.20615        -0.369113     -0.395714     -1.103542
O       1.92399     13.21928      0.48317        -0.298302      0.276516     -0.839273
O       1.81344     13.34095     13.18867        -0.233847      0.230565      0.615470
O      13.21094      1.97540      0.45651        -0.189076     -0.236864      0.091372
O      13.20579      1.82433     13.24069         0.032036     -0.096713     -0.127710
O      13.24953     13.15420      0.51246        -0.157437      0.725614     -0.202270
O      13.13849     13.35530     13.28014         0.565885      0.093500     -0.921074
O       1.84354      1.94964      4.58586        -0.043343     -0.207866     -0.302814
O       1.82646     13.14476      4.59723         0.356946      0.513712     -0.649660
O      13.22884      1.76934      4.61762         0.195036      0.202359     -0.301694
O      13.10170     13.19940      4.79802         0.652412      0.815693     -0.740045
O       1.94775      2.01677      8.96459        -0.306363     -0.210509      0.041912
O       2.02326     13.20074      8.78087        -0.412358      0.373662      0.324714
O      13.12529      1.96614      8.91428         0.607114     -0.058983     -0.403954
O      13.22528     13.24717      8.86361         0.488747     -0.056133     -0.651266
O       1.84197      5.68135      0.45864        -0.303146      0.074889     -0.730044
O       1.81306      5.81344     13.15970        -0.141940     -0.297628      0.157285
O      13.21071      5.64051      0.52633         0.344859      0.158495      0.308150
O      13.31781      5.69061     13.19657         0.085681      0.447884      0.451708
O       1.83743      5.68328      4.69528         0.184897     -0.018664     -0.941705
O      13.37747      5.81955      4.80829        -0.529362     -0.661611     -1.511559
O       1.87669      5.66726      9.11852         0.062451     -0.003141     -1.379236
O      13.45670      5.68702      8.85764        -0.597952     -0.464605      0.829428
O       1.85610      9.53894      0.47894        -0.001142     -0.510683     -1.074981
O       1.78565      9.60318     13.18330        -0.166378     -0.154756     -1.492709
O      13.20076      9.47813      0.45423        -0.012924     -0.262288     -1.150642
O      13.24445      9.59185     13.14184         0.289745     -0.623226      0.608166
O       2.03763      9.43220      4.59831        -0.006511     -0.121218     -0.459583
O      13.46896      9.42776      4.72263        -0.690556      0.168232     -0.243112
O       1.90827      9.49581      8.99011        -0.094256      0.515850     -0.450123
O      13.35934      9.63828      8.96833         0.120376     -0.112978     -3.090376
O       5.66947      1.94796      0.37888        -0.016984     -0.340515     -0.253503
O       5.66740      1.97688     13.05479         0.262856     -0.536634     -0.180151
O       5.46426     13.28197      0.18597         0.876507      0.041229      1.298108
O       5.78467     13.28248     13.20790         0.007761      0.483933      0.125945
O       5.76043      1.90276      4.75725        -0.066203     -0.163210      0.216593
O       5.71242     13.31967      4.69383         0.237373     -0.554159      0.428517
O       5.73228      1.87523      9.09044        -0.097119      0.058809     -0.723072
O       5.71719     13.32784      8.88732        -0.514609     -0.290168     -1.305987
O       5.75150      5.61458      0.30352        -0.307634      0.036766      0.291004
O       5.59722      5.60003     13.16839         0.228776      0.147077     -0.764571
O       5.56852      5.53274      4.80381         0.340883      0.301309      0.418540
O       5.57113      5.77627      8.96029         0.351013     -0.519667     -0.032534
O       5.84958      9.49289      0.21496        -0.969887     -0.324433      0.936201
O       5.74276      9.32245     13.28303        -0.187945      0.277285     -0.604616
O       5.80389      9.53885      4.75670        -0.266197      0.018606      0.061374
O       5.79222      9.47307      8.99796        -0.215204      0.056989      0.033803
O       9.38596      1.92418      0.52532         0.437129      0.184700     -0.545516
O       9.50251      1.99939     13.17969         0.170801     -0.334506     -0.493956
O       9.45508     13.38172      0.43434         0.204962     -0.259689     -0.162962
O       9.46074     13.19981     13.16564        -0.289254      0.449848      0.489055
O       9.37222      1.81339      4.82046         0.589724      0.129001      0.257678
O       9.42261     13.26377      4.78384         0.100481      0.190592      0.550236
O       9.54603      1.88049      8.97721         0.253905      0.170620     -0.343269
O       9.52675     13.24526      8.94180        -0.162360     -0.127748     -0.107729
O       9.46865      5.72687      0.54754         0.325543     -0.577949     -0.326834
O       9.41557      5.69553     13.17532         0.313610     -0.017379     -1.879166
O       9.30829      5.67127      4.78304         0.828424     -0.090882      1.106948
O       9.44138      5.82557      8.91393         0.017589     -0.259842     -0.934206
O       9.64249      9.52357      0.40031        -0.514976     -0.585711      0.014787
O       9.57015      9.40523     13.26013        -0.063592      0.427380      0.742219
O       9.24674      9.47044      4.62056         0.620570     -0.014752      1.106232
O       9.59642      9.46031      8.98043        -0.641533      0.060463      0.234925
O       3.82077      1.78753      2.52202        -0.208817     -0.253395      0.420955
O       3.68291      1.86609     15.17098         1.562864      0.404424      0.633658
O       3.79983     13.17853      2.48760         0.179592      0.313446      0.446637
O       3.74234     13.22054     15.20960        -0.305219      0.708025     -0.192579
O      15.10914      1.84730      2.41657         0.839748     -0.018281      0.890943
O      15.14661      1.84774     15.31212        -0.834821     -0.232636      0.446075
O      15.10463     13.14598      2.63536         0.078112      0.292997     -0.256557
O      15.12179     13.51669     15.41634        -0.197403     -0.618033     -0.176336
O       3.79692      1.98798      6.75863        -0.197351     -0.477604      0.194778
O       3.76012     13.26014      6.73635         1.137413      0.485624      0.061515
O       0.00968      1.90586      6.74642        -0.495436      0.103742     -0.049852
O       0.12799     13.35041      6.76621        -1.826935     -0.219622      0.309272
O       3.78804      1.88969     11.06983        -0.107027      0.182324      0.430493
O       3.81296     13.27249     11.10838        -0.740945     -0.088226     -0.666151
O      15.16812      1.73420     11.02127        -0.190423      0.768053      0.132488
O      15.17605     13.36559     10.96128         0.251760     -0.044654      0.246494
O       3.81612      5.67638      2.50793        -1.386580     -0.394610      0.167728
O       3.67372      5.52834     15.34163         0.606885      0.315344      0.168416
O      15.13879      5.59504      2.80745         0.996803     -0.188082     -1.435320
O      15.16252      5.77541     15.47737        -0.347636      0.104734     -0.045150
O       3.65128      5.84639      6.82835         1.329982     -0.779489      0.621356
O       0.00941      5.75784      6.94608         0.040912     -0.544019     -0.277626
O       3.76266      5.52334     11.14883         0.699217      0.304617     -0.224098
O       0.00661      5.60132     11.14117        -0.784509      0.315150      0.140213
O       3.93023      9.45304      2.46135        -1.041435      0.062509      0.245776
O       3.69477      9.56122     15.25302         0.406185     -0.073146     -0.029793
O      15.09180      9.36944      2.49692         1.423664      0.250574      0.032525
O      15.15126      9.36332     15.34564        -0.076361      0.011266      0.215098
O       3.85011      9.49454      6.93533        -0.425103     -0.222409     -0.202105
O       0.09572      9.44004      6.81683        -0.531871      0.783936      0.172974
O       3.78542      9.61180     11.13681         0.131131     -0.129224      0.037292
O      15.16798      9.38992     11.04252         0.665742      0.416756      0.466445
O       7.54951      1.92993      2.51765         0.021081      0.044176      0.732440
O       7.55517      1.92626     15.25451         0.217575     -0.304231     -0.028382
O       7.50572     13.14205      2.43509         0.488377      0.187237      0.159648
O       7.57058     13.26633     15.45694        -0.829573      0.566982     -0.598614
O       7.59315      1.90121      6.97744         0.172496      0.458885      0.174822
O       7.53503     13.14769      6.93695         1.153157      0.254203     -0.344122
O       7.65466      1.77375     11.05340        -0.092910      0.226470      0.394214
O       7.57797     13.49620     10.93314         0.390366     -0.963015      0.654604
O       7.46790      5.66619      2.53921         1.524581     -0.447959      0.536516
O       7.54515      5.79086     15.22597         0.399024     -0.073225      0.328218
O       7.55332      5.70440      6.87469        -0.009609     -0.286012      0.524748
O       7.60535      5.81784     11.02915        -0.983401     -0.191958     -0.013873
O       7.57968      9.44482      2.43551         0.095761     -0.079814      0.048537
O       7.60308      9.36992     15.32977         0.559479     -0.075536      0.028182
O       7.60125      9.45624      6.97425         0.850484      0.247608     -0.047774
O       7.63735      9.36215     11.20023        -0.918407      0.648295     -0.540329
O      11.35472      1.79295      2.60592        -0.647684      0.480849      0.445322
O      11.31025      2.06402     15.42204         0.325318     -0.635766     -0.161306
O      11.30057     13.25231      2.63229        -0.437263      0.435170      0.210837
O      11.35648     13.10261     15.32886        -0.612324      0.513556      0.208386
O      11.43954      1.79072      6.81627        -0.176249      0.122607     -0.142617
O      11.39038     13.36052      6.88002         0.124067      0.028894     -0.109984
O      11.45402      1.98489     11.14567        -1.048131     -0.594511     -0.275794
O      11.40826     13.23334     10.92152        -0.256422      0.163080      0.798826
O      11.33549      5.53803      2.82848         1.178564      0.471878     -0.296381
O      11.37364      5.69056     15.24450         0.125123     -0.447004      0.530077
O      11.40625      5.73214      6.89630         0.032472     -0.366205     -0.240085
O      11.38539      5.69283     10.85851         0.179764     -0.272606      0.524706
O      11.32137      9.35875      2.66120        -0.292528      0.010874     -0.152838
O      11.45299      9.59497     15.32418        -1.077438     -0.389595      0.209878
O      11.42584      9.37987      6.79969         0.133683      0.334518     -0.276890
O      11.43051      9.39918     10.97735         0.208831      0.783266      0.636254
O       1.91919      3.73310      2.49056        -0.320181      0.319190      0.139809
O       1.77348      3.83457     15.23510        -0.335097     -1.420188      0.480477
O       1.88622     15.08760      2.60652        -0.360707     -0.253569      0.159757
O       1.87645     15.19315     15.44457        -0.003951      0.314673     -0.200058
O      13.25631      3.78562      2.64654        -0.227665     -1.165008      0.487001
O      13.29218      3.88020     15.34419         0.135669     -1.017849      0.208704
O      13.18134     15.17619      2.58523         0.406876     -0.615634      0.018241
O      13.10728     15.19039     15.49183        -0.094577      0.907585     -0.197170
O       1.81566      3.81674      6.77039         0.115871      0.071432      0.329610
O       1.86682      0.07788      6.71865         0.673686     -1.202107     -0.098512
O      13.32564      3.75497      6.70227        -0.187593     -0.314899      0.050081
O      13.42872     15.18596      6.90387        -0.524627      0.509332     -0.288362
O       1.89354      3.81363     11.32401        -0.598019     -1.156332     -0.712191
O       1.87825     15.18262     11.07834         0.441424     -0.185438     -0.266710
O      13.26388      3.80488     11.16263         0.709494     -0.673577     -0.432467
O      13.20530     15.15329     10.85898        -0.254737      0.869540      0.893817
O       1.93242      7.52159      2.57447        -0.272645     -0.378878     -0.228841
O       1.91373      7.62517     15.21050         0.090100      0.008638      0.471054
O      13.26253      7.53247      2.69029        -0.409532     -0.989013     -0.493596
O      13.20832      7.59375     15.45538         0.036642      0.873363     -0.073382
O       1.85358      7.62813      6.91384         0.201092     -0.305657     -0.167746
O      13.44502      7.56802      6.89459        -0.769840      0.768010      0.092682
O       1.91426      7.65119     11.11516         0.073969      0.292429      0.249330
O      13.27314      7.56322     11.02409         0.394834      0.507532      0.273272
O       1.87206     11.26764      2.61869         0.127576      0.556388     -0.071581
O       1.64015     11.47237     15.33885         0.319759     -0.350334     -0.061312
O      13.16129     11.30323      2.51268        -0.196500      0.737023      0.693942
O      13.34061     11.36773     15.31983         0.467981      0.470499      0.147755
O       1.87967     11.31191      6.66875         0.193961      0.907307      0.466371
O      13.30904     11.41543      6.75615         0.221478     -0.222714      0.478161
O       1.74212     11.46596     11.09735         0.386054      0.080279     -0.463992
O      13.34888     11.43056     11.13422        -0.063866      0.060782     -0.030632
O       5.65677      3.71979      2.55540        -0.212094      0.311696      0.127965
O       5.69539      3.73464     15.31441        -0.278198      0.837077     -0.046901
O       5.86838     15.09173      2.56056        -1.062497     -0.184029     -0.299615
O       5.66559      0.14039     15.28176        -0.156753     -1.928993     -0.140193
O       5.63785      3.80728      6.99678         0.092879     -0.539460      0.179419
O       5.81705      0.04462      6.89240        -0.883926     -1.409299     -0.172585
O       5.83737      3.75300     11.10784        -0.077135      0.701657     -0.401105
O       5.61346     15.08331     11.09673         0.239935      1.147794      0.421154
O       5.65058      7.47932      2.51531         0.157739      1.596116     -0.097472
O       5.43314      7.50388     15.34788         0.199868      0.636351     -0.247959
O       5.70864      7.56493      6.83825        -0.091878      0.096328      0.341437
O       5.56796      7.54384     11.11024         0.058740      0.577439     -0.056412
O       5.75461     11.36267      2.28347        -0.436368     -0.578607      0.706630
O       5.67151     11.40925     15.10773         0.344966     -0.162477      0.923356
O       5.67371     11.35249      6.88837        -0.014619      0.942354     -0.063308
O       5.72012     11.37664     11.09807         0.702491      0.196131     -0.054708
O       9.40220      3.80322      2.75509         0.431386     -0.591095      0.210586
O       9.35570      3.83582     15.27922         0.378409     -0.657048      0.446721
O       9.26782      0.03622      2.49598         0.777052     -1.362324      0.878992
O       9.47606     15.18245     15.24183         0.273023      0.296368      0.280572
O       9.45313      3.77257      6.98498         0.568565     -0.278137     -0.273564
O       9.38239     15.15052      7.09125         0.425406      0.292994     -0.927639
O       9.45019      3.91236     10.99818        -0.047743     -1.703095      0.166302
O       9.59707      0.00560     11.11534         0.042665      0.264692     -0.072588
O       9.39731      7.46574      2.57881         0.337024      1.919845      0.281038
O       9.60419      7.49539     15.43383        -0.211719      1.581063      0.082857
O       9.48725      7.58327      6.93122        -0.027357      0.241507     -0.295753
O       9.56250      7.63650     11.24822        -0.060076     -0.697082     -0.338182
O       9.47625     11.37064      2.60285         0.115462     -0.109179     -0.239259
O       9.35611     11.38604     15.46815         0.200772     -0.728336     -0.552422
O       9.56472     11.29261      6.89454        -0.278221      0.974519     -0.261271
O       9.48726     11.39633     11.19576        -0.404112     -0.099990     -0.374831
