  # total energy = -7881.20526477 
CRSYTAL
PRIMVEC
    15.6000000000000000    0.0000000000000000    0.0000000000000000
     0.0000000000000000   15.6000000000000000    0.0000000000000000
     0.0000000000000000    0.0000000000000000    17.640000000000000
PRESSURE
-3.95634 -4.20507 0.126286 -0.009894 -0.11832 -0.017909
PRIMCOORD
320 1
Pb       3.96196      3.89686      4.32052        -0.051638     -0.378990     -0.481749
Pb       3.93873      3.84219     17.57160        -0.104337      0.568747     -0.090027
Pb       3.81726     15.53074      4.38208         0.320254     -0.075187      0.201793
Pb       3.88215      0.04761     17.62940         0.090133     -0.772533     -0.619432
Pb      15.51686      3.85060      4.31374         0.210919     -0.337085     -0.352283
Pb       0.03901      3.81237     17.51597        -0.289601      0.639522     -0.005998
Pb       0.01717      0.00349      4.33518        -0.201536     -0.200049      0.238424
Pb      15.59418     15.57277      0.02327        -0.440233     -0.142299     -0.557399
Pb       3.85675      3.90811      8.72971         0.441873      0.009424      0.222313
Pb       3.88512      0.01990      8.78878        -0.169969     -0.125536     -0.490284
Pb       0.02041      3.87953      8.82279        -0.330204      0.280688      0.073997
Pb      15.54165      0.10043      8.74642         0.422137     -0.818016      0.032897
Pb       3.88943      3.93916     13.16867        -0.544856     -0.330266      0.046001
Pb       3.96918      0.08132     13.17587        -0.833366     -0.371178     -0.126795
Pb       0.03071      3.92299     13.20942        -0.217769     -0.056628     -0.509663
Pb      15.52013     15.54108     13.21555         0.436307      0.500171     -0.279308
Pb       3.94077      7.75703      4.29144        -0.427117      0.424754     -0.234583
Pb       3.91794      7.74722     17.54573         0.282120     -0.253799     -0.198527
Pb      15.57010      7.57955      4.33322         0.588467      1.103732     -0.278606
Pb       0.00032      7.75131     17.54238        -0.129404     -0.201673     -0.082647
Pb       3.80186      7.73827      8.74043         0.541322      0.258327      0.337913
Pb       0.02159      7.84256      8.70484        -0.025109      0.006225      0.057413
Pb       3.91746      7.79772     13.16535        -0.255111      0.225957      0.565163
Pb      15.59287      7.74667     13.14878        -0.062218     -0.113594      0.283716
Pb       3.90199     11.61326      4.30769        -0.268034      0.061076      0.272149
Pb       3.83502     11.64973     17.55318         0.437538      0.448258     -0.297892
Pb       0.07014     11.75329      4.38214        -0.002915     -0.470140      0.015455
Pb       0.03700     11.65949     17.58394        -0.553940     -0.498670      0.116701
Pb       3.85521     11.77053      8.82708         0.183968     -0.159734     -0.321892
Pb       0.00632     11.59907      8.71753        -0.036453      0.413569     -0.044031
Pb       3.90467     11.61746     13.18337         0.327277      0.192618     -0.429760
Pb       0.01342     11.73821     13.20011        -0.509937     -0.086421     -0.177985
Pb       7.74417      3.83913      4.27305        -0.144059      0.045366      0.290772
Pb       7.83237      3.88588     17.62819        -0.144659      0.435716     -0.325481
Pb       7.75252     15.56886      4.38204         0.554286     -0.516755      0.213851
Pb       7.75972     15.57947     17.55772        -0.277517     -0.444839      0.049776
Pb       7.78159      3.90407      8.78149         0.094444      0.272092     -0.113350
Pb       7.71951      0.07548      8.74927         0.237007     -0.671843      0.245804
Pb       7.67016      3.84431     13.23499         0.587871      0.360947     -0.148967
Pb       7.80018      0.04738     13.10422        -0.140208     -0.491826      0.009924
Pb       7.74088      7.68078      4.30998         0.136101      0.621514     -0.087396
Pb       7.78158      7.72096     17.49653        -0.310533     -0.011185      0.058377
Pb       7.77778      7.81947      8.79078        -0.306398     -0.166247     -0.578852
Pb       7.85499      7.67933     13.21504        -0.108503      0.385108      0.527056
Pb       7.71110     11.55108      4.27735         0.195186      0.211500      0.327201
Pb       7.79420     11.62495     17.44513         0.080788      0.316732      0.352537
Pb       7.76838     11.66941      8.63008        -0.479366      0.220645      0.204170
Pb       7.73840     11.67583     13.15212        -0.156612      0.120768     -0.319500
Pb      11.75498      3.80798      4.24170        -0.777722      0.130224      0.279987
Pb      11.57117      3.82720     17.56924         0.618138      0.545520     -0.157309
Pb      11.74992      0.01316      4.28080        -0.771768     -0.354442      0.386912
Pb      11.76813      0.01766     17.59242        -0.051775     -0.059180     -0.032226
Pb      11.70646      3.87571      8.74397        -0.208941      0.385026     -0.391474
Pb      11.57326      0.02952      8.76442         0.438129     -0.343216     -0.161104
Pb      11.66886      3.83421     13.15508         0.133835      0.348684      0.266325
Pb      11.65747      0.07204     13.21241         0.215648      0.227101     -0.670728
Pb      11.62118      7.80897      4.40076        -0.202185      0.226541     -0.573217
Pb      11.73346      7.81230     17.62967         0.152062     -0.441097     -0.461328
Pb      11.73412      7.80594      8.76264        -0.257770     -0.206739      0.076095
Pb      11.66087      7.83770     13.11516        -0.052708     -0.076468      0.691674
Pb      11.67447     11.57594      4.44523         0.012874      0.043150      0.010463
Pb      11.57812     11.74857      0.03954         0.013427     -0.307806     -0.235342
Pb      11.56945     11.77777      8.90828         0.807983     -0.063766     -0.421025
Pb      11.69496     11.69075     13.32303         0.155771     -0.126053     -0.440305
Ti       1.91088      1.87349      2.28800         0.626892      1.073232      1.705719
Ti       1.91061      1.93428     15.65416         0.063004     -0.021731     -1.655293
Ti       1.93079     13.63343      2.40670         0.618826     -1.001665     -0.127401
Ti       1.78074     13.66675     15.62114         1.304193      0.740646      0.438059
Ti      13.60602      1.89148      2.38858        -0.249951     -0.306717      0.261350
Ti      13.57969      1.93277     15.57101         0.377985      0.501529      0.293542
Ti      13.59134     13.56373      2.40248         0.022413     -0.265169      1.030294
Ti      13.51877     13.55025     15.69143         0.548044      0.007122      2.669584
Ti       1.92686      1.98896      6.83472         0.901987     -1.305999     -0.313457
Ti       1.95039     13.61295      6.76717         0.016707      0.116637      0.417991
Ti      13.68624      1.93237      6.79734        -0.178318      0.113814      0.863997
Ti      13.68254     13.64034      6.72600         0.662018     -0.367028      0.527742
Ti       1.88873      1.97783     11.25859         0.344771     -0.486691      0.983495
Ti       1.95237     13.64450     11.21315         0.176018      1.122629      2.129058
Ti      13.65872      1.96667     11.13761        -0.018401      0.150492      2.632800
Ti      13.61188     13.60078     11.19782         0.274164      0.484924     -0.347766
Ti       1.96429      5.75893      2.39126        -0.194705      0.915271      0.175087
Ti       1.93542      5.87083     15.60295         0.710757     -0.614054      2.034040
Ti      13.60818      5.90282      2.35729        -0.291828     -0.305371     -1.240351
Ti      13.65607      5.74977     15.57457        -0.558392      0.500039      0.971189
Ti       1.90273      5.79564      6.68178         0.497926      0.924737      1.421764
Ti      13.63338      5.90951      6.68295        -0.659416     -1.079871      0.193854
Ti       1.93711      5.93803     11.20389        -0.736454     -1.201200      1.443171
Ti      13.51755      5.88661     11.14840         1.159211     -1.296429      1.041195
Ti       1.89697      9.74039      2.30721         0.232969     -0.773314      2.186804
Ti       1.98630      9.75891     15.64984        -0.137950     -1.122732      0.355687
Ti      13.68496      9.70404      2.30983        -0.120441      0.427369     -0.761773
Ti      13.60849      9.63860     15.60762         0.297193      0.213474     -0.459125
Ti       1.94406      9.71213      6.70999        -0.133030      0.737646     -0.673249
Ti      13.55037      9.79481      6.80507         0.333984      0.991130     -0.425006
Ti       1.91720      9.79432     11.22996         0.093093     -0.030335     -0.364582
Ti      13.65607      9.70418     11.26601        -0.592960      0.468434      1.583956
Ti       5.77293      1.86249      2.38886        -0.031882      1.310611      0.591603
Ti       5.91138      1.91581     15.65254        -0.618815      0.133479      0.955060
Ti       5.86095     13.67799      2.43737        -0.076887     -0.190947      0.525847
Ti       5.78320     13.67340     15.48187        -0.351201      0.005516      0.871034
Ti       5.90259      1.92930      6.80203        -1.437671      0.649086      0.710281
Ti       5.84716     13.68608      6.70550        -0.024387     -0.373174     -0.859448
Ti       5.82608      1.94286     11.17227        -0.700215      0.185051      0.162538
Ti       5.86173     13.67140     11.16352        -0.016224     -0.878372      2.675711
Ti       5.85441      5.86856      2.37233        -0.167181     -0.404984     -0.107032
Ti       5.86927      5.76826     15.53071        -0.618660      1.034010      1.303355
Ti       5.83512      5.86549      6.87562         0.378386      0.064681      1.155240
Ti       5.79967      5.83354     11.31574         0.125656     -0.265818      0.781090
Ti       5.82445      9.77256      2.25723         0.233125     -1.177553     -0.139410
Ti       5.89020      9.75941     15.63192        -0.712928     -0.621505      0.524012
Ti       5.78200      9.80081      6.77790         0.676039     -0.698224      0.608483
Ti       5.84808      9.66031     11.18602        -0.657215      1.117207     -0.372222
Ti       9.60824      1.85589      2.30187         1.254218     -0.374674      1.008582
Ti       9.70137      1.88614     15.62662         0.730737      1.146440     -0.111261
Ti       9.79575     13.51468      2.50725        -0.623561      0.920406     -0.384065
Ti       9.67693     13.69508     15.54499        -0.012409     -0.610133     -0.037710
Ti       9.74284      1.91247      6.82730         0.189436      0.249187      0.267366
Ti       9.80650     13.56999      6.77871        -0.836398      1.152316     -1.844463
Ti       9.66191      2.03345     11.19838         0.482210      0.369922      0.483351
Ti       9.80216     13.62683     11.29335        -1.014752      0.258300      1.264494
Ti       9.69141      5.76472      2.43636        -0.086992      0.523427      0.097291
Ti       9.75013      5.84037     15.62756         0.434172      0.305355     -0.002131
Ti       9.75659      5.83814      6.71854        -0.607247     -0.445167      1.454680
Ti       9.70167      5.91662     11.20573         0.236295     -1.650431      0.676704
Ti       9.80140      9.72451      2.36669        -0.399215     -0.345047      1.045044
Ti       9.78991      9.71135     15.55966        -0.289074     -0.617530     -0.201926
Ti       9.76247      9.68962      6.80644        -0.153305      0.054524     -1.227868
Ti       9.67485      9.76516     11.15937         0.764884      0.086419      2.172035
O       1.87290      1.98303      0.58132        -0.180249     -0.360647     -1.138627
O       1.96136      1.87250     13.85182        -0.049519      0.217027      1.587286
O       1.93412     13.61974      0.64770        -0.103540     -0.110896      0.310963
O       1.65760     13.91209     13.90649         0.368607     -1.019034      0.242724
O      13.61878      1.82521      0.67551         0.037871     -0.019619     -0.445110
O      13.53536      2.06876     13.86022        -0.072786     -0.543757     -0.933321
O      13.49729     13.68194      0.67679         0.084838      0.001189     -0.664118
O      13.47225     13.47555     14.04527         0.370819      0.306266     -3.012400
O       1.92231      2.00372      5.12134         0.024666      0.214081     -0.902997
O       2.03858     13.39467      5.05655        -0.267139      0.678297     -0.990421
O      13.76865      1.89108      5.07798        -0.117817      0.005807     -1.218395
O      13.81065     13.55769      4.95365        -0.512339      0.134352      0.913714
O       1.90429      1.93580      9.52788        -0.134735      0.190844     -1.493144
O       2.02797     13.63528      9.51962        -0.086298     -0.153989     -1.696293
O      13.75193      1.93199      9.42601        -0.102554      0.051928     -1.182884
O      13.61053     13.61338      9.43871        -0.050895     -0.046990      0.486887
O       1.88627      5.79497      0.68444         0.170713     -0.106762     -0.497192
O       1.83775      5.86311     13.91657         0.279489      0.079254     -1.990864
O      13.62401      5.90870      0.59004        -0.005936      0.033562      1.044835
O      13.48955      5.77832     13.86739         0.637716     -0.025016     -0.832222
O       1.98632      5.99105      4.96720        -0.234361     -0.782206     -0.069086
O      13.55864      5.75631      4.92993         0.155452      0.214372      0.397137
O       1.95299      5.77576      9.50705         0.021196      0.250725     -1.782302
O      13.61562      5.83931      9.41188        -0.214194      0.189505     -0.676484
O       1.96657      9.84363      0.60073         0.123747     -0.052711     -1.735173
O       2.08680      9.57250     13.95061        -0.296557      0.580865     -0.996548
O      13.52618      9.64840      0.54415         0.426751     -0.198777      0.285941
O      13.61927      9.66859     13.83801        -0.246423      0.112427     -0.085073
O       1.77633      9.71212      4.95657         0.516462     -0.179412      0.836162
O      13.46256      9.95214      5.07162         0.396453     -0.641006      0.204012
O       1.89291      9.94955      9.48682         0.080158     -0.572458     -0.056003
O      13.61267      9.68900      9.58611         0.310188      0.042235     -2.305077
O       5.83376      1.83902      0.67714         0.270232     -0.187217     -1.264223
O       5.88024      1.96919     13.96493        -0.253530     -0.013157     -1.790763
O       5.84211     13.77608      0.70272         0.088968     -0.102606      0.163631
O       5.85086     13.76279     13.75140        -0.061351     -0.381606     -0.221038
O       5.74035      2.02282      5.08952         0.349200     -0.229194     -1.138544
O       5.84198     13.68177      4.90095        -0.131742      0.108502      1.211340
O       5.91273      2.08716      9.44390        -0.270331     -0.296160     -0.472126
O       5.68029     13.67543      9.51338        -0.105711     -0.001214     -3.118663
O       5.85578      5.86668      0.67389         0.174525      0.104939     -1.197433
O       5.89022      5.79837     13.79719        -0.310727     -0.251689     -0.966544
O       5.89634      5.87732      5.17829        -0.083306      0.169898     -1.928894
O       5.72757      5.73929      9.61811         0.174015      0.025245     -1.410982
O       5.82666      9.62192      0.48313        -0.034649      0.662743      0.597151
O       5.75117      9.85509     13.92815         0.082400     -0.150454     -1.504715
O       5.95748      9.67727      5.06709        -0.250493     -0.044899     -0.767244
O       5.80845      9.71417      9.44975         0.236273     -0.099028     -0.411249
O       9.79192      1.94653      0.56290        -0.656073     -0.117538     -0.159803
O       9.78056      2.05660     13.89868        -0.187378     -0.623882     -0.412377
O       9.80901     13.40156      0.73938        -0.146608      0.312936      0.027381
O       9.69460     13.64023     13.78102         0.289828      0.264526      0.582553
O       9.83182      1.77595      5.12888        -0.376391      0.316055     -0.658761
O       9.80747     13.61266      4.99931        -0.057647      0.110001      1.058978
O       9.57474      2.08234      9.44956         0.501483     -0.277209     -0.255930
O       9.83909     13.55573      9.58391         0.042416     -0.003948     -1.469212
O       9.55684      5.81103      0.71836         0.163273     -0.183889     -1.315101
O       9.73514      5.98311     13.90091         0.064409     -0.349502     -0.142840
O       9.73937      5.81838      4.98842        -0.204250      0.198787     -0.449437
O       9.76030      5.84179      9.48910        -0.094446      0.140387     -0.674466
O       9.74708      9.92170      0.67257         0.039768     -0.345774     -1.257061
O       9.78908      9.56984     13.80804        -0.039533      0.514981      0.026405
O      10.05173      9.66689      5.02200        -0.799373      0.031809      0.601191
O       9.66765      9.88085      9.46411        -0.170556      0.018593     -1.520793
O       3.86002      2.03034      2.66142        -0.183715     -0.571909      0.556955
O       3.85214      1.84286     16.09487         0.216685      0.440875     -0.048891
O       3.89971     13.56950      2.94027         0.107618      0.411723     -0.609694
O       3.88849     13.76176     15.97905        -0.220241     -0.195072     -0.088084
O       0.04662      1.84903      2.80847        -0.768884      0.144102     -0.070953
O      15.52304      2.03437     15.91572         0.831332     -0.434220      0.640019
O       0.07440     13.58467      2.88276        -0.361198      0.452263     -0.517462
O      15.53007     13.54759     16.23344        -0.025422      0.391272     -0.614353
O       3.95693      1.95759      7.19307        -0.842622      0.215842      0.558461
O       3.90281     13.68454      7.16906        -0.277678     -0.246921      0.400950
O       0.04409      1.92414      7.23279        -0.484748      0.324067      0.388166
O       0.03066     13.57279      7.14064        -0.577673      0.245853      0.194847
O       3.87202      1.89349     11.65546         0.702457      0.276228     -0.171305
O       3.85703     13.67245     11.66711        -0.238439     -0.222945      0.121570
O      15.55383      1.97570     11.67858        -0.217006     -0.200802     -0.292325
O      15.54306     13.65418     11.76484        -0.180229     -0.385326     -0.494313
O       3.91446      5.88642      2.74638        -0.224963     -0.298800      0.484663
O       3.96019      5.89164     16.09546        -0.601743     -0.878803     -0.344579
O      15.48070      5.85913      2.74314         0.492660     -0.810050      0.468341
O       0.07027      5.85426     16.03250        -1.587741     -0.530177      0.068568
O       3.84526      5.85966      7.22828        -0.692899     -0.360976     -0.234392
O      15.53759      5.99338      7.04360         0.416190     -0.255818      0.037828
O       3.79687      5.90815     11.76162         0.841955     -0.454015     -0.161650
O       0.05300      5.74167     11.55442        -1.019281      0.482610      0.471776
O       3.86263      9.66582      2.77983         0.826237     -0.085224     -0.196697
O       3.95270      9.73465     15.99310        -1.027997     -0.125264      0.733825
O       0.04333      9.68828      2.60788        -0.977711     -0.040904      0.339981
O       0.01346      9.62494     15.90505         0.018996      0.623152      0.563812
O       3.96569      9.68961      7.08515        -1.679427      0.346906      0.212049
O      15.58190      9.65709      7.19946        -0.669406      0.335233      0.138314
O       3.84883      9.82209     11.58520         0.187838     -0.398382      0.440094
O       0.00864      9.70678     11.61936        -0.558503      0.308204      0.383145
O       7.77750      1.77475      2.85144        -0.374710      0.717848     -0.399386
O       7.81798      2.01331     15.91288        -0.535757     -0.241704      0.866426
O       7.78926     13.63349      2.93918        -0.233309     -0.205463     -0.536417
O       7.81115     13.71470     15.92876        -0.440815     -0.611086      0.382504
O       7.76560      1.86842      7.26492         0.364053      0.592590     -0.388510
O       7.71965     13.70896      7.13187         0.399569     -0.131333      0.352868
O       7.70701      1.99861     11.63438         0.469149      0.044754      0.174273
O       7.80158     13.68198     11.57286         0.157690     -0.101611      0.242846
O       7.77470      5.74135      2.76211        -0.324743      0.412461      0.970284
O       7.74640      5.87360     15.92846         1.011092     -0.753439      0.624858
O       7.82153      5.95167      7.30534         0.029612      0.020802     -0.234389
O       7.78345      5.89250     11.76824        -0.250333     -0.535574     -0.775604
O       7.75022      9.73247      2.67064         0.375903      0.236613      0.372361
O       7.78714      9.75778     15.93705         0.041210     -0.148242      0.339555
O       7.83079      9.67033      7.11243        -0.175417      0.197692      0.646730
O       7.69454      9.77174     11.65600         1.075888     -0.587382     -0.189572
O      11.61963      1.84645      2.76293         0.676470      0.310195      0.028254
O      11.69324      1.96249     16.00208        -0.789573     -0.580115      0.492688
O      11.65873     13.58052      2.95997         1.286869      0.012227     -0.581514
O      11.64058     13.58407     16.03707        -0.951058      0.476945      0.276589
O      11.74301      1.90428      7.21322        -0.327723      0.064336      0.318513
O      11.70372     13.64550      7.19622        -0.179771      0.208342      0.091660
O      11.62381      2.05573     11.65357         0.413327     -0.992305     -0.721164
O      11.70535     13.68261     11.65681        -0.418062     -0.325867      0.341515
O      11.54754      5.70130      2.71230         1.719381      0.118037      0.354965
O      11.72025      5.83970     16.09772        -1.060359     -0.016895      0.031212
O      11.62449      5.76235      7.15748         1.311277      0.414900      0.159087
O      11.68854      5.73946     11.57100        -0.064193      0.672204     -0.194863
O      11.76002      9.64359      2.68933        -0.340770      0.407018      0.514602
O      11.64820      9.56434     15.94986         0.088600      0.497737      0.213139
O      11.58865      9.96541      7.22098         1.094351     -0.550575      0.739487
O      11.63687      9.64200     11.44052        -0.171833      0.376380      0.608752
O       1.91706      3.84780      2.77990        -0.189399      0.007762      0.341955
O       1.94246      3.91444     16.05277         0.283345     -0.982400      0.041956
O       2.01941     15.55266      2.79039        -0.198412      0.291956     -0.106481
O       1.84673     15.55443     16.13911        -0.306007      0.525230      0.130345
O      13.59906      3.77118      2.77492         0.425149      0.514503      0.095808
O      13.53499      3.87462     16.03121         0.570002      0.023921      0.310533
O      13.64454     15.47640      2.81454         0.297919      0.994935      0.136108
O      13.60438      0.02227     16.01881         0.134910     -0.765022      0.236984
O       1.88292      3.92729      7.27041        -0.058146      0.590373     -0.548860
O       1.91797     15.59072      7.04804         0.180871     -0.035415      0.648376
O      13.70319      3.85162      7.12919        -0.046147      0.848153      0.276683
O      13.75276     15.57561      7.23880        -0.528991     -0.217774     -0.296444
O       2.00571      3.87590     11.63878        -0.136753      0.121368      0.298590
O       1.88169      0.02941     11.68894        -0.073050     -0.490588     -0.193561
O      13.68155      3.84670     11.64871        -0.301196      0.330567     -0.592802
O      13.59128     15.51518     11.65954        -0.137649      1.042534     -0.118703
O       1.88250      7.70104      2.85159         0.157904      0.357182     -0.237026
O       1.92617      7.67254     16.12530         0.514330      1.941130      0.062758
O      13.64618      7.78200      2.82154        -0.333289     -0.408405     -0.032786
O      13.60618      7.71921     15.96156         0.292794      0.319705      0.462382
O       1.97733      7.87615      7.29757        -0.401047     -1.240768     -0.430096
O      13.52262      7.86513      7.10635        -0.270457     -0.749123      0.121001
O       1.83260      7.81290     11.65328         0.695895      0.501775     -0.365187
O      13.59843      7.73877     11.67483         0.420293      0.086129     -0.456054
O       1.99268     11.63271      2.83285        -0.158656      0.356614     -0.320750
O       2.00275     11.70086     15.99677        -0.405459      0.031221     -0.109752
O      13.74911     11.65347      2.58793        -0.368916      0.019615      0.509084
O      13.51890     11.60139     16.00975         0.445451      0.041838      0.372456
O       1.83636     11.63773      7.13301         0.786585     -0.078563      0.540358
O      13.60719     11.71782      7.31042         0.235284     -0.139436     -0.298490
O       1.86336     11.71797     11.65584         0.149609     -0.049816      0.482619
O      13.56572     11.68678     11.75471         0.234430     -0.300233     -0.239344
O       5.79643      3.90441      2.61501         0.380558     -0.724959      1.250334
O       5.86115      3.91316     16.11505        -0.158372     -1.045845     -0.073243
O       5.81244      0.04910      2.90184        -0.388555     -1.133704     -0.092788
O       5.89973      0.00337     15.99398         0.053173      0.093600      0.392960
O       5.89710      3.93851      7.16500        -0.088081     -0.402686      0.530422
O       5.81157     15.58103      7.27280        -0.022507      0.289807     -0.236544
O       5.79014      3.88917     11.72884        -0.047547     -0.277248     -0.070171
O       5.84413     15.58728     11.49904         0.057129      1.093558      0.394539
O       5.95590      7.77522      2.76110        -0.548779      0.448118      0.320236
O       5.83484      7.66854     15.91049         0.223184      1.446412      0.439748
O       5.73566      7.74363      7.41879         0.734602      0.395274     -0.385284
O       5.75540      7.71659     11.62394         0.263635      1.281826      0.092375
O       5.83590     11.62586      2.82869        -0.111007      0.427394     -0.638498
O       5.74615     11.74508     15.93679         0.538816      0.198090      0.247884
O       5.79367     11.72423      7.14270         0.334926     -0.029304      0.168602
O       5.87002     11.68551     11.41874        -0.346441     -0.076255      1.118957
O       9.57202      3.78817      2.86574         0.708831     -0.367969     -0.458486
O       9.74426      3.85107     16.07676        -0.264271      0.667663      0.160202
O       9.76809     15.51759      2.76278        -0.195961      0.495600      0.033489
O       9.59003     15.59542     16.03004         1.057996     -0.386823     -0.201349
O       9.70370      3.92793      7.18855        -0.069774     -0.515938     -0.006017
O       9.66458      0.03419      7.32028         0.587855     -0.754321      0.155592
O       9.74012      3.95944     11.66634        -0.754456     -0.654782     -0.115310
O       9.66336      0.08755     11.65328         0.626639     -0.253577     -0.130999
O       9.75711      7.80542      2.83494        -0.185667     -0.476463     -0.044484
O       9.64327      7.77211     16.00688         0.241827     -0.065887      0.511589
O       9.86036      7.83715      7.29228        -0.160630     -0.272904     -0.357190
O       9.73048      7.74926     11.61643        -0.285896      1.271473     -0.266502
O       9.84003     11.63883      2.88212        -0.487501     -0.638525      0.224051
O       9.64325     11.62006     16.00452         0.712956      0.830521     -0.333616
O       9.59676     11.76253      7.11407         0.432783     -0.738696      0.504216
O       9.70864     11.68951     11.79553         0.284552     -0.413475     -0.692567
