  # total energy = -7879.42975312 
CRSYTAL
PRIMVEC
    15.2000000000000000    0.0000000000000000    0.0000000000000000
     0.0000000000000000   15.2000000000000000    0.0000000000000000
     0.0000000000000000    0.0000000000000000    17.000000000000000
PRESSURE
7.82308 7.77454 4.44624 0.246531 -0.230401 -0.018556
PRIMCOORD
320 1
Pb       3.64843      3.82698      4.30267         0.606053     -0.141842     -0.240787
Pb       3.90371      3.87246     16.99262        -0.548809     -0.433501     -0.273264
Pb       3.66566      0.14932      4.26511         0.580651     -0.348736      0.174462
Pb       3.82460     15.17489     16.91690        -0.030314      0.037807      0.351538
Pb       0.06264      3.84101      4.21020        -0.115513      0.045507      0.016629
Pb       0.14029      3.92814     16.95183        -0.029031     -0.663030     -0.221303
Pb      15.15610      0.15322      4.44844        -0.006424     -0.229984     -0.908428
Pb       0.04702     15.12377     16.96598        -0.184621     -0.151858     -0.060670
Pb       3.89135      3.86046      8.35000         0.008870     -0.257965      0.884005
Pb       3.81703     15.07361      8.66101         0.401002      0.125317     -0.436703
Pb       0.12572      3.62844      8.61928        -0.951411      0.936780     -0.416833
Pb      14.98174     15.16462      8.47332         0.024646      0.029344     -0.195084
Pb       3.85054      3.60687     12.56865        -0.542051      0.787570      0.298189
Pb       3.81753      0.08512     12.84010        -0.367077     -0.871578     -0.764634
Pb      15.14133      3.83356     12.67754         0.128768      0.193180      0.251109
Pb       0.05326      0.00856     12.82973        -0.007052     -0.261011      0.122429
Pb       3.72162      7.62311      4.32262         0.152648      0.091952     -0.391557
Pb       3.72473      7.62967     16.96081        -0.185270     -0.015892     -0.150997
Pb      15.10786      7.74437      4.33847         0.088004     -0.555766     -0.237220
Pb      15.06089      7.47392     16.91330         1.069779      0.520161     -0.328519
Pb       3.83929      7.57950      8.36288        -0.539156      0.148568      0.300629
Pb      15.06839      7.53550      8.49479         0.709900      0.113965     -0.424950
Pb       3.67148      7.50003     12.69473         0.136515      0.452102      0.006247
Pb       0.02837      7.50651     12.81388        -0.370756     -0.072573     -0.421084
Pb       3.58762     11.41362      4.31836         0.765758      0.120305     -0.145061
Pb       4.00465     11.40648      0.15007        -1.131873     -0.087124     -0.413537
Pb       0.02537     11.42824      4.19238        -0.831962      0.217802      0.522919
Pb       0.09801     11.32205     16.84583        -0.703523      0.530926      0.578926
Pb       3.66844     11.37372      8.56758         0.521483      0.081232     -0.653461
Pb      15.16204     11.34385      8.61255        -0.302612      0.430891     -1.055239
Pb       3.73992     11.26238     12.65325         0.124981      0.858209      0.612936
Pb      15.13016     11.07760     12.94741        -0.001393      1.092609     -0.384205
Pb       7.55137      3.82781      4.27323         0.430247     -0.111459     -0.285939
Pb       7.61552      3.78597      0.10733         0.124239      0.017903     -0.661516
Pb       7.56689     15.10029      4.22483        -0.135543      0.294153      0.202668
Pb       7.68482     15.10971     16.96250        -0.506154      0.329470     -0.179024
Pb       7.67054      3.58770      8.46596        -0.250464      1.166428     -0.566354
Pb       7.63773      0.06369      8.54986        -0.199500     -0.969372     -0.821697
Pb       7.69461      3.70887     12.76165        -0.279739      0.644692     -0.169753
Pb       7.58033     15.12235     12.81307        -0.078478      0.028140     -0.116643
Pb       7.67405      7.46164      4.09916        -0.014275      1.017391      0.161722
Pb       7.67976      7.69335      0.09235        -0.250494     -0.545334     -0.262561
Pb       7.56560      7.62132      8.33176        -0.088814     -0.196278      0.031982
Pb       7.52490      7.66530     12.63886        -0.061369     -0.473258      0.448276
Pb       7.49828     11.35836      4.30495         0.085393      0.209407     -0.706782
Pb       7.52220     11.44738     16.97195         0.581638     -0.146218      0.330528
Pb       7.62997     11.44846      8.63339        -0.685289      0.371584     -0.645939
Pb       7.66655     11.38581     12.69437        -1.170905     -0.329847      0.219152
Pb      11.34334      3.99861      4.10986         0.077563     -0.867576      0.166576
Pb      11.30496      3.63519     16.94660         0.382013      0.789646      0.285963
Pb      11.47427     15.16449      4.17393        -0.236765     -0.185030     -0.185286
Pb      11.40027      0.02039     16.98483         0.309181     -0.627729     -0.354103
Pb      11.44070      3.78238      8.47399        -0.191622      0.161518     -0.045078
Pb      11.35747      0.02175      8.48449        -0.007175     -0.125486     -0.359648
Pb      11.29217      3.60828     12.74168         0.155171      1.071841      0.100803
Pb      11.39470      0.02617     12.63743        -0.308355     -0.468022      0.598632
Pb      11.44849      7.47263      4.13404        -0.063453      0.657995     -0.076355
Pb      11.40673      7.60612     16.94174        -0.079551     -0.306699      0.305893
Pb      11.33409      7.53499      8.66382         0.036774     -0.026240     -0.766337
Pb      11.39798      7.67146     12.91490         0.034977     -0.691177     -1.088179
Pb      11.36249     11.31670      4.20669         0.074351      0.383106     -0.376341
Pb      11.45943     11.41147     16.76485        -0.016703      0.155530      0.590177
Pb      11.36919     11.35704      8.50703        -0.126520      0.507799      0.302363
Pb      11.27300     11.17519     12.52493         0.659378      0.995419      0.402064
Ti       1.89449      1.97145      2.21263        -0.274927     -0.811565      0.486728
Ti       1.96050      1.83141     15.02332        -0.360471      0.745210      0.536416
Ti       1.75112     13.42010      2.39142         0.691190      0.046711     -1.544538
Ti       1.92027     13.25100     14.94532        -1.153845     -0.388463     -0.748214
Ti      13.33626      1.91307      2.21224        -0.090257     -0.566363     -0.570645
Ti      13.34521      1.88522     15.00423         0.019356     -0.339107      0.327176
Ti      13.20181     13.24134      2.12610         0.109844      0.411583      0.817648
Ti      13.19933     13.31978     14.78400         0.414054     -0.631383      1.157123
Ti       1.93493      1.84774      6.63775        -0.716559      0.621762     -1.016306
Ti       1.81043     13.34962      6.48248        -0.267567     -0.867092      1.664176
Ti      13.29060      2.01047      6.36930         0.197236     -0.520114      1.294211
Ti      13.16791     13.29252      6.44106         0.812758     -0.007657      0.754111
Ti       1.82914      1.86237     10.73898         0.535361     -0.484427      2.077771
Ti       1.74184     13.28887     10.66219         1.158852      0.197918      1.657317
Ti      13.29690      1.97396     10.88657         0.301553     -0.237808     -1.677839
Ti      13.24044     13.40100     10.74351        -0.301980     -1.172623     -0.308955
Ti       1.98450      5.79605      2.19726        -1.180308     -0.572694     -0.438754
Ti       1.94818      5.65704     14.79516        -0.717281      0.172009      1.266188
Ti      13.45243      5.62708      2.13235        -1.210478      0.639447      1.034782
Ti      13.23378      5.58985     14.92863         0.725034      0.145116      0.052162
Ti       1.91416      5.66588      6.52248        -1.446650      0.803599     -0.124686
Ti      13.28539      5.69751      6.51353         0.172282      0.729210      0.047820
Ti       1.84586      5.69455     10.65589        -0.111414      0.066714     -0.005325
Ti      13.23947      5.77733     10.69314        -0.707015     -0.530816      0.269897
Ti       1.94195      9.52489      2.28551        -0.179105      0.136619      0.064826
Ti       1.91707      9.53028     15.00071        -0.032335     -0.995112      0.095423
Ti      13.38281      9.49698      2.18033        -0.951406     -0.211620     -1.483362
Ti      13.24021      9.42149     14.95507         1.400124      0.773054     -0.798119
Ti       1.83598      9.50227      6.49507        -0.513859     -0.093036     -0.123457
Ti      13.15936      9.53421      6.53895         0.390635     -0.393167      1.278726
Ti       1.79873      9.52019     10.67547         0.714971     -0.284536      0.191657
Ti      13.25768      9.48901     10.66155        -0.467538     -0.070466      1.183544
Ti       5.75317      1.96005      2.29694        -0.705735      0.063973      0.137422
Ti       5.74708      1.95764     14.87878         0.064127     -1.324943      0.700059
Ti       5.58596     13.35361      2.31333         0.076515     -0.357523      2.250393
Ti       5.61232     13.23040     14.93940         0.647612      0.432457     -0.200097
Ti       5.72250      1.78812      6.53393        -0.011071     -0.048613      0.427403
Ti       5.60714     13.26389      6.48055         0.927922      0.039784      0.159908
Ti       5.75716      1.82363     10.77021        -1.006442      0.248682     -0.307947
Ti       5.61655     13.27314     10.82395        -0.203853     -0.288862      0.534099
Ti       5.67285      5.70416      2.18670         0.288903      0.456220      2.823737
Ti       5.71184      5.64816     14.87805         0.208475      0.760699      1.305267
Ti       5.74337      5.66487      6.37014        -0.120600     -0.286451      1.041422
Ti       5.59859      5.68290     10.72832         0.543006     -0.509888      0.185743
Ti       5.75562      9.49552      2.21817         0.113646     -0.392106      1.451152
Ti       5.69938      9.41433     15.08082        -0.912778      0.547273     -1.153255
Ti       5.67277      9.48388      6.34799        -0.686597      0.784764      1.341870
Ti       5.54006      9.41519     10.74214         0.884284      1.769872      0.598952
Ti       9.51868      1.83164      2.24284        -0.153874      0.885852      0.470944
Ti       9.48880      1.86195     15.01778        -0.031870      0.208893      0.157920
Ti       9.38960     13.26637      2.16788         0.725948     -0.449264      0.580410
Ti       9.43382     13.27216     14.91277         0.964415     -0.396740      0.722017
Ti       9.58317      1.93616      6.34918        -0.777939      0.265829      0.551588
Ti       9.44830     13.33732      6.41638        -1.084173      0.756544      0.189943
Ti       9.45509      1.88955     10.69729         0.539576     -0.014827      0.807342
Ti       9.40337     13.27564     10.81397         0.120004      0.210833     -0.702826
Ti       9.54943      5.68981      2.09972        -0.154933     -0.327593      0.363259
Ti       9.46901      5.73231     14.93481        -0.538935     -0.607211      1.263265
Ti       9.51627      5.81039      6.45704        -0.125296     -0.875943     -0.024697
Ti       9.37431      5.70112     10.62753         0.834872     -0.648410      0.635844
Ti       9.62981      9.53016      2.13152        -1.185007     -0.160208      0.250870
Ti       9.45434      9.43690     14.98795         0.178653      0.575906     -0.039379
Ti       9.38676      9.68397      6.41551         0.479301     -2.334503     -0.598615
Ti       9.36891      9.35348     10.66231         0.177322      0.701296      1.317941
O       1.89762      1.75992      0.47626         0.076682      0.127726     -1.050316
O       1.92545      1.72183     13.27481         0.154382      0.505111     -0.466832
O       1.84616     13.48594      0.56937        -0.008843     -0.356839      0.476347
O       1.79991     13.27328     13.17421         0.330650      0.030593      0.481368
O      13.37667      1.89870      0.41844        -0.223723     -0.135000      0.070652
O      13.18805      1.97157     13.21119         0.033676      0.024059     -0.141883
O      13.14339     13.18459      0.36933         0.425468      0.416150     -0.023807
O      13.16667     13.33105     13.04021         0.094787     -0.179011     -0.746765
O       1.84564      1.94136      4.80288         0.086772     -0.098396      0.516883
O       1.72557     13.26816      4.74674         0.193964      0.471709     -1.241072
O      13.29622      1.93787      4.62519         0.039404      0.247512     -0.290244
O      13.09976     13.22634      4.68467         0.255052     -0.103683     -0.031786
O       1.70101      1.86468      9.03496         0.177762     -0.294032     -2.137900
O       1.84055     13.21536      8.89839         0.096691      0.349186     -0.330563
O      13.40546      1.94066      9.06121        -0.335939     -0.301531      0.424904
O      13.12596     13.47905      8.92716         0.132757     -0.011996      0.183507
O       1.91264      5.78146      0.39275        -0.094616     -0.113725      0.302927
O       1.88278      5.70426     13.02023        -0.332406     -0.114438      0.103347
O      13.56910      5.62931      0.37857        -0.662503      0.209653     -0.637611
O      13.26724      5.63707     13.14831        -0.000808     -0.093940      0.098330
O       2.04200      5.68349      4.70368        -0.519439      0.210399     -0.031720
O      13.15871      5.70626      4.70669         0.247420      0.114836      0.265988
O       1.89371      5.70250      8.88478         0.016245     -0.194048     -0.181238
O      13.34718      5.83205      8.90663        -0.536546     -0.180963     -0.156330
O       1.84457      9.48179      0.52193         0.145360      0.187914     -0.512689
O       1.83384      9.52936     13.22249        -0.113408      0.153052     -0.984449
O      13.35812      9.51422      0.32860        -0.109418     -0.370640      0.615772
O      13.28662      9.48104     13.07685        -0.072317     -0.161901      0.811918
O       1.84630      9.45464      4.63495        -0.268538     -0.063605      0.704887
O      13.13691      9.48898      4.79760         0.463994      0.101416     -1.220780
O       1.89137      9.60745      8.90464         0.114403      0.024040     -0.060516
O      13.13276      9.44336      8.90303         0.171443     -0.151622     -0.101812
O       5.80242      2.14411      0.52004        -0.281787     -0.586391      0.201912
O       5.68899      1.89937     13.09186        -0.006481      0.385654      0.203006
O       5.63250     13.26137      0.58935         0.094388      0.086020     -1.762723
O       5.66629     13.14741     13.18967        -0.153482      0.304851      0.379932
O       5.62964      1.77784      4.80659         0.044702      0.148392     -1.065895
O       5.66188     13.32914      4.70596         0.071550     -0.092758     -0.283942
O       5.75871      1.79130      8.98829         0.111200      0.056364     -0.203209
O       5.72581     13.33301      9.06204        -0.051759     -0.000363     -0.797455
O       5.66273      5.50716      0.50718         0.143327      0.120441     -2.713863
O       5.64457      5.65185     13.16072         0.056723      0.021327     -1.296486
O       5.63413      5.66718      4.65097        -0.055601      0.245962     -0.771572
O       5.55511      5.73463      8.98627         0.120028     -0.023310     -1.033195
O       5.68953      9.49264      0.46219        -0.227654     -0.009503     -1.374803
O       5.60998      9.51950     13.30681         0.255721     -0.255986      0.004159
O       5.81307      9.53410      4.63087        -0.289341     -0.227855     -1.104900
O       5.43524      9.45617      9.01845         0.365766      0.078947     -1.254544
O       9.35694      1.93529      0.42732         0.395069     -0.164513     -0.060218
O       9.54959      1.83885     13.24312        -0.122235      0.173577     -0.370960
O       9.37221     13.22819      0.38565         0.070993      0.190303     -0.121729
O       9.42729     13.32871     13.15802         0.099391     -0.111472     -0.771278
O       9.66619      1.88717      4.60134        -0.378129     -0.049436     -0.335840
O       9.51451     13.32972      4.63866        -0.226730     -0.171187      0.214879
O       9.47274      2.07819      8.94320         0.028287     -0.629584     -0.167592
O       9.22959     13.26030      9.02957         0.422703      0.149157      0.110844
O       9.52113      5.55094      0.33359        -0.223187      0.538542      0.337197
O       9.43595      5.92073     13.20176         0.082127     -0.569240     -0.607234
O       9.63408      5.73327      4.64099        -0.154459      0.177559      0.074652
O       9.30220      5.72115      8.86818         0.229471     -0.014601     -0.471056
O       9.66499      9.50882      0.32251        -0.400318     -0.249321      0.132737
O       9.42676      9.23373     13.20166         0.115251      0.472983     -0.046567
O       9.39063      9.54479      4.60381         0.287377      0.317596      0.836720
O       9.34107      9.41133      8.94381         0.034173      0.186125     -1.335197
O       3.75350      1.89581      2.71353         0.397146      0.216024     -0.523320
O       3.89524      1.89010     15.35270        -0.472828      0.009311     -0.046924
O       3.68823     13.29386      2.75344         0.808621      0.255149     -0.371732
O       3.78172     13.28351     15.41483         0.404692     -0.369091      0.025205
O      15.17350      1.95044      2.63893         0.626465      0.136137      0.206757
O       0.00878      1.75324     15.26454         0.206768     -0.033250     -0.012475
O      15.08714     13.26324      2.61539        -0.192304      0.075493      0.039096
O      15.12566     13.29665     15.20576         0.191553      0.007219      0.377772
O       3.76418      1.69038      6.97648         0.018372      0.424268     -0.009778
O       3.74999     13.47744      6.87425        -0.683041     -0.267973      0.021915
O      15.16888      2.06168      6.90200        -0.631382     -0.594878     -0.443705
O      15.10235     13.16442      6.86036        -0.378396      0.435229     -0.021364
O       3.75188      1.73786     11.05000        -0.086142      0.294016      0.171437
O       3.77406     13.37015     11.06807        -1.025380      0.229805     -0.074043
O      15.14667      1.89218     11.34231         0.131733      0.102857     -0.416995
O      15.09988     13.23683     10.88590        -0.097076      0.173063      0.309612
O       3.76969      5.67627      2.46149         0.930830     -0.119032      0.539541
O       3.75833      5.56667     15.25090         1.022240      0.423762      0.208319
O       0.03323      5.74259      2.57925         0.439785     -0.103228      0.355100
O       0.06626      5.63729     15.27294        -0.240572     -0.041023     -0.265159
O       3.75767      5.67517      6.78948         1.118793      0.316197      0.201952
O      15.16373      5.77283      6.76876         0.028583     -0.652613     -0.101310
O       3.67326      5.64579     11.10832         1.079479     -0.086805      0.046252
O      15.14496      5.82347     10.98275         0.498961     -0.473034      0.633154
O       3.78436      9.52995      2.64558         0.167448      0.163411     -0.061473
O       3.74171      9.57335     15.39372         0.720361     -0.395888      0.428985
O      15.18524      9.53580      2.61351         0.395992     -0.216443      0.316946
O      15.18640      9.58215     15.25988        -0.162116     -0.146346      0.001978
O       3.71247      9.40162      6.68703         0.566770      0.231516      0.159770
O      15.14311      9.52830      6.98170        -0.277458      0.440303     -0.633055
O       3.70865      9.51456     11.16117        -0.554619     -0.070182     -0.064444
O      15.15372      9.60729     11.03392        -0.357464     -0.526052     -0.066306
O       7.59836      1.94534      2.69267        -0.041995     -0.121454      0.001854
O       7.63244      1.84733     15.29369        -0.644093      0.009636      0.049221
O       7.54102     13.31658      2.61291        -0.367768     -0.010017     -0.002082
O       7.56840     13.22262     15.33631        -0.389996      0.056062      0.087178
O       7.63581      1.94055      6.76918        -0.165429      0.073181      0.168506
O       7.55600     13.27362      6.81525         0.008570     -0.181801      0.037546
O       7.61060      1.94834     11.15740        -0.082894      0.002685     -0.158931
O       7.51866     13.28030     11.26661         0.567284     -0.095174     -0.117792
O       7.60107      5.70654      2.60719         0.293678     -0.274700     -0.525244
O       7.57492      5.77283     15.34749        -0.228970      0.012053     -0.189507
O       7.60834      5.66551      6.67208        -0.973830     -0.095498      0.215572
O       7.50694      5.63872     10.97761        -0.468985     -0.152363      0.625368
O       7.63614      9.31246      2.45796         0.158931      0.527696     -0.160526
O       7.60386      9.39061     15.38146         0.072086      0.260523      0.120505
O       7.49284      9.63635      6.80185         0.584300     -0.395959      0.344854
O       7.50397      9.50518     11.08417        -0.354342     -0.398857      0.037200
O      11.39656      1.93061      2.47709        -0.266798     -0.139511     -0.159294
O      11.39870      1.90423     15.41453        -0.237354     -0.028222     -0.078362
O      11.30982     13.28964      2.55082         0.312113     -0.005187     -0.161547
O      11.33250     13.28680     15.33997         0.071998     -0.000115     -0.256692
O      11.39459      1.82023      6.87307         0.819313      0.554326      0.042792
O      11.28099     13.35174      6.82570         0.651924      0.119852      0.504603
O      11.36177      1.89505     11.13282        -0.258591      0.026725     -0.267012
O      11.28022     13.29547     10.99396         0.101409      0.219008      0.389692
O      11.44601      5.71213      2.37486         0.213276     -0.197329      0.342597
O      11.40925      5.69238     15.37784         0.188060     -0.044238     -0.298658
O      11.31584      5.68170      6.98747         1.090544      0.785901     -0.126503
O      11.31962      5.77815     10.87683        -0.252123     -0.290712      0.078420
O      11.44574      9.44113      2.54426        -0.181220      0.317814      0.107218
O      11.44861      9.27711     15.20998        -1.268392      0.313454      0.112980
O      11.24687      9.57986      6.90365         0.336746     -0.491897     -0.259373
O      11.28602      9.33221     11.04939         0.080718      0.262525     -0.014407
O       1.89208      3.82110      2.56115        -0.125904      0.452357      0.132407
O       1.94809      3.73900     15.34703        -0.363647     -0.071708     -0.367189
O       1.76422      0.08719      2.73340         0.138477     -0.296433      0.233441
O       1.95779     15.09855     15.35550         0.030635      1.011175      0.231368
O      13.31502      3.79921      2.63733         0.136919      0.695456     -0.357359
O      13.41102      3.76035     15.40077        -0.472401     -0.188936     -0.297836
O      13.31823      0.01158      2.59504        -0.320827     -0.481005     -0.144012
O      13.09019     15.15109     15.26896         0.675815      0.682788     -0.007464
O       1.91534      3.79273      6.86460         0.142364     -0.218217      0.296081
O       1.63738      0.01369      6.86335         0.180364     -0.285974     -0.033347
O      13.23811      3.85661      6.91957        -0.194395     -0.639374     -0.359173
O      13.29460      0.05194      6.64936         0.186432     -0.250990      0.555669
O       1.76290      3.73685     11.02428         0.221899      0.605346      0.212259
O       1.74947      0.00566     11.21891         0.099768     -0.919518     -0.677086
O      13.26569      3.84284     11.02722         0.084253      0.230021      0.554014
O      13.27969      0.05711     11.12721        -0.197997     -0.573942      0.021117
O       1.98988      7.61153      2.57091        -0.482805      0.543881      0.387655
O       1.82426      7.61227     15.12980         0.583388     -0.799430      0.489609
O      13.33466      7.60603      2.57436         0.108374     -0.354217     -0.081104
O      13.39923      7.51257     15.15911         0.060688      0.143215      0.488704
O       1.78433      7.60132      6.89605         0.388184     -0.029020     -0.407286
O      13.35760      7.63719      6.84866        -1.006855     -0.157232     -0.130522
O       1.94720      7.62447     10.98533        -0.526718      0.138389      0.327184
O      13.22090      7.58639     11.16188         0.425393      0.930144     -0.202047
O       1.82540     11.50060      2.75784         0.235739     -1.260723     -0.618234
O       1.93209     11.38580     15.39439        -0.280455      0.769577      0.080183
O      13.22438     11.35456      2.52502         0.005754      0.251674      0.294913
O      13.23575     11.33509     15.10055        -0.256931      0.490744      0.313244
O       1.88891     11.42380      6.76463         0.380115     -0.384315      0.236776
O      13.13081     11.41927      7.01281         0.247380      0.092485     -0.486895
O       1.87264     11.43862     11.06773         0.143832     -0.466578     -0.132004
O      13.09070     11.37291     10.91374         0.082086     -0.111757      0.215791
O       5.67944      3.84884      2.77750        -0.040789     -0.822134     -0.342053
O       5.83014      3.77254     15.24728        -0.438957      0.550616      0.193139
O       5.67732      0.05998      2.67214        -0.129278     -0.510161     -0.477992
O       5.67152     15.17045     15.21375         0.320599     -0.137908      0.285303
O       5.59190      3.73670      6.79750         0.206140      0.488876      0.037103
O       5.76752     15.15349      6.97812        -0.030820      0.032335      0.059499
O       5.54198      3.72180     10.97763         0.321163      0.616447      0.359582
O       5.75340      0.01255     11.26856        -0.062332     -0.571355     -0.262755
O       5.69641      7.58580      2.50447        -0.537387     -0.348549      0.256347
O       5.52748      7.58615     15.39823         0.450312     -0.962973     -0.019833
O       5.63856      7.58966      6.69376         0.277908     -0.288872      0.321974
O       5.55362      7.61200     11.07761         0.116313     -1.422118      0.353029
O       5.72334     11.33386      2.60390        -0.088492      1.215078     -0.113778
O       5.70397     11.34958     15.49840        -0.160260      0.504016     -0.142364
O       5.55809     11.39108      6.82018        -0.278240     -0.036356      0.088888
O       5.60548     11.38508     11.15344         0.271497     -0.339564     -0.265996
O       9.43647      3.80841      2.58489         0.271597      0.050872     -0.178345
O       9.51618      3.81191     15.21177        -0.128076     -0.396419      0.019846
O       9.42223     15.16217      2.50577         0.101096      0.565011     -0.057889
O       9.47660     15.12798     15.37345         0.017359      0.789155      0.116540
O       9.54397      3.83371      6.77940        -0.133358     -0.630827      0.040026
O       9.41371      0.05492      6.85525         0.230200     -0.444797      0.056113
O       9.45488      3.76441     11.19074         0.151005      0.528662     -0.169870
O       9.39428      0.02221     11.09674         0.086449     -0.116526     -0.247054
O       9.55733      7.58255      2.44400        -0.121218     -0.230980     -0.037474
O       9.51423      7.57271     15.44161         0.158824      0.133316      0.277925
O       9.36545      7.65012      6.76530         0.093250      0.524580      0.158200
O       9.32858      7.52079     11.01795        -0.113865      0.427875     -0.050808
O       9.38074     11.37229      2.50135         0.339078     -0.160697      0.171617
O       9.61232     11.35555     15.16464        -0.583686     -0.747834      0.068375
O       9.43671     11.45275      6.89334         0.004444      0.369825     -0.067810
O       9.34066     11.30057     11.06489         0.648721      0.457811     -0.016577
