  # total energy = -7879.61654665 
CRSYTAL
PRIMVEC
    15.2000000000000000    0.0000000000000000    0.0000000000000000
     0.0000000000000000   15.2000000000000000    0.0000000000000000
     0.0000000000000000    0.0000000000000000    17.000000000000000
PRESSURE
8.28726 8.14072 4.76946 0.380935 -0.085766 0.012373
PRIMCOORD
320 1
Pb       3.71151      3.85288      4.20088         0.315393     -0.506128      0.386017
Pb       3.92360      3.92655      0.00719        -0.661478     -0.809856     -0.445957
Pb       3.67601      0.12490      4.34479         0.353233     -0.713415      0.315395
Pb       3.89937     15.16404      0.02260         0.294024      0.367544     -0.287556
Pb       0.00718      4.06103      4.29282        -0.169800     -1.021686     -0.289787
Pb      15.13488      3.67479      0.04542         0.548133      0.531882      0.061524
Pb       0.07333      0.16998      4.22848        -0.095926     -0.425741      0.441232
Pb      15.16620     15.12915     16.95927        -0.408760      0.087662      0.093333
Pb       4.08500      3.59586      8.45377        -0.736564      0.940968      0.682132
Pb       3.79576     15.07870      8.65889        -0.197743     -0.003862     -0.768796
Pb       0.03655      3.76892      8.46018         0.074679      0.148120      0.169529
Pb      15.18995     15.07057      8.65225         0.158756      0.032870     -0.707108
Pb       3.74660      3.83172     12.75819        -0.174414     -0.204695     -0.289851
Pb       3.67915     15.16631     12.80364         0.092777     -0.200296     -0.123052
Pb       0.01975      3.67987     12.70702         0.160450      0.172949     -0.071098
Pb       0.00378      0.04359     12.80182         0.146819     -0.072290     -0.323879
Pb       3.78149      7.48709      4.23867        -0.176366      0.427974      0.041294
Pb       3.90244      7.60254      0.16887        -0.429781      0.335716     -0.985930
Pb      15.16112      7.56942      4.11644         0.205948      0.611574      0.327214
Pb       0.01878      7.55397     16.87041         0.011747      0.100704      0.371237
Pb       3.83525      7.61990      8.38217        -0.246658     -0.128837      0.734803
Pb      15.09632      7.48481      8.39986         0.504776      0.432178      0.094052
Pb       3.68981      7.50838     12.66650         0.307054      0.482712      0.136059
Pb      15.11692      7.53489     12.61278         0.579090     -0.009437      0.921191
Pb       3.58882     11.40203      4.26778         0.407548      0.434783     -0.057741
Pb       3.91578     11.34126      0.23870        -0.097679     -0.198260     -0.680739
Pb      15.07829     11.45827      4.22340         0.285900      0.413032      0.353393
Pb       0.04971     11.43056      0.03333        -0.000222      0.116899     -0.427892
Pb       3.87801     11.38502      8.50827        -0.537583     -0.115152      0.201409
Pb      15.05805     11.29010      8.54255         0.537864      0.574930     -0.330715
Pb       3.59673     11.22525     12.91186         0.278390      0.519294     -0.721537
Pb      15.12123     11.26385     12.71431         0.523368      0.670003      0.461852
Pb       7.43918      3.62507      4.12685         1.008103      0.664082      0.342585
Pb       7.56722      3.80109     16.95160         0.542603     -0.051505      0.404501
Pb       7.53860     15.13837      4.32194         0.062259     -0.216792     -0.605969
Pb       7.62642     15.08363      0.03029        -0.321678      0.290751      0.036520
Pb       7.74009      3.79040      8.34085        -0.300948      0.191313      0.534964
Pb       7.60418     15.13771      8.37942        -0.043492     -0.326376      0.513569
Pb       7.49259      3.82439     12.74061         0.223103      0.025187     -0.399399
Pb       7.64615      0.15521     12.69110        -0.215849     -0.514746     -0.294855
Pb       7.69997      7.45083      4.38282        -0.152869      0.438189     -0.407499
Pb       7.46269      7.68494     16.90583         0.664011     -0.229177      0.223766
Pb       7.62564      7.63955      8.42546        -0.343077     -0.321398      0.529210
Pb       7.56423      7.63359     12.80428        -0.138575      0.045499     -0.701387
Pb       7.52100     11.18076      4.23030         0.108156      0.538546     -0.070442
Pb       7.78953     11.46262     16.93149        -1.007777     -0.328887      0.408547
Pb       7.52505     11.46521      8.41444        -0.026229     -0.045729      0.250369
Pb       7.50598     11.27632     12.68414        -0.263222      0.228262     -0.071771
Pb      11.36092      3.77977      4.15604        -0.302329      0.114754      0.132263
Pb      11.40943      3.72924      0.02872        -0.441162      0.185183      0.237608
Pb      11.42644     15.14470      4.26966        -0.292619      0.386875      0.189496
Pb      11.42491     15.00405     16.93396        -0.254917      0.930241      0.346437
Pb      11.43482      3.75230      8.46419        -0.402067      0.125251     -0.147934
Pb      11.35048      0.01946      8.37400        -0.390627     -0.231163     -0.058231
Pb      11.33205      3.80069     12.79250         0.474395     -0.144166     -0.219286
Pb      11.43474      0.05428     12.69841        -0.112838     -0.066820      0.196022
Pb      11.46792      7.61468      4.14627        -0.321691     -0.296302      0.568038
Pb      11.24541      7.47659     16.89631         0.277830      0.479112     -0.182825
Pb      11.32797      7.54586      8.35495         0.219843      0.128695      0.886140
Pb      11.29589      7.52114     12.59687         0.119444      0.239720      0.444961
Pb      11.39017     11.24016      4.25431        -0.038887      0.753336      0.440025
Pb      11.41692     11.53097     16.88303         0.039234     -0.750793      0.011823
Pb      11.45961     11.44516      8.60370        -0.371135     -0.032492     -0.646181
Pb      11.36920     11.37025     12.69719         0.292565      0.109154      0.991568
Ti       1.95273      1.92966      2.23886        -0.965957      0.329104      0.367197
Ti       1.90144      1.86092     15.09857         0.780005      1.541112      0.029555
Ti       1.88343     13.40110      2.15734        -0.181749     -0.369766      1.294388
Ti       1.92783     13.34032     15.08724        -0.919189     -1.527019     -0.930511
Ti      13.29276      1.97344      2.32489         0.535912     -0.339415     -1.144748
Ti      13.28673      1.95266     15.03915        -0.199459     -0.870696     -0.438814
Ti      13.24344     13.37999      2.30318         0.781909     -0.471209     -0.481932
Ti      13.24930     13.30605     14.92106         0.609736     -0.123362     -0.144099
Ti       1.90115      1.93835      6.62458         0.554170     -1.456792     -0.113092
Ti       1.81217     13.25215      6.58473        -0.345303      0.824013     -0.485497
Ti      13.32024      1.90840      6.55959        -0.259096     -0.385909     -0.814349
Ti      13.21433     13.33523      6.44750         0.567974     -0.123017      0.986062
Ti       1.93187      1.85938     10.68974        -0.665817      0.513131      0.245944
Ti       1.78531     13.23750     10.80440         1.310090     -0.258760     -0.147156
Ti      13.25078      1.88183     10.64247         1.332135      0.113187      1.321134
Ti      13.21815     13.33428     10.80102         0.560971     -0.412846     -0.526235
Ti       1.89166      5.70097      2.19055        -0.698980      0.307941      1.303193
Ti       1.92875      5.68912     14.95308         0.265489     -0.091828      0.375665
Ti      13.26155      5.76223      2.19001         1.024373     -0.645417     -1.083872
Ti      13.38148      5.65912     15.00057        -0.581755      0.842070     -0.768565
Ti       1.95898      5.67905      6.51154         0.343033      1.273066      0.786210
Ti      13.27407      5.67117      6.44831         0.778697      0.434195     -0.299519
Ti       1.91253      5.66184     10.60468         0.291453     -0.067285      1.091751
Ti      13.36311      5.65131     10.72155        -0.843179     -0.581915      0.643069
Ti       1.82387      9.63233      2.34047        -0.110612     -0.462184     -0.502971
Ti       1.87630      9.53092     15.07653         0.599799     -0.326705      1.751394
Ti      13.23859      9.58336      2.09575         0.512458     -0.148535      1.559040
Ti      13.31688      9.51601     14.96662        -0.504310     -0.437667      0.011855
Ti       1.83231      9.52198      6.46208         0.147771     -0.713983      0.302937
Ti      13.25196      9.52366      6.51190        -0.385827     -0.075371      2.271965
Ti       1.87423      9.45657     10.62102         0.875929      0.344032      1.143574
Ti      13.28379      9.46620     10.77977         0.063512      0.288929     -0.833743
Ti       5.66402      1.81709      2.23378         0.761012      0.088653     -0.427417
Ti       5.74859      1.87384     14.97444        -0.982181     -0.105792      1.446823
Ti       5.65551     13.29913      2.31729         0.498996     -0.681670      0.108153
Ti       5.65475     13.29889     14.91788        -0.622899     -0.118131      0.140681
Ti       5.74367      1.82885      6.47933        -1.255809     -0.297951      0.332261
Ti       5.55496     13.21885      6.37601         0.591134      0.547508      0.073925
Ti       5.66568      1.88232     10.79397         0.688303      0.285549     -0.617790
Ti       5.58950     13.31404     10.86518        -0.304799     -0.618744     -0.344381
Ti       5.70461      5.71294      2.25094         0.636359     -0.024185      1.358394
Ti       5.71656      5.67538     14.88133        -0.246809      0.426747      0.784821
Ti       5.77527      5.67949      6.50626        -0.328702     -0.063823      0.387022
Ti       5.73213      5.71545     10.77470        -0.164896      0.454338      0.469574
Ti       5.65345      9.47135      2.35295         0.512190      0.357352     -0.783334
Ti       5.62953      9.53310     14.99261        -0.265996     -0.330442      0.550600
Ti       5.63066      9.43889      6.40435        -0.195972     -0.018345      0.514253
Ti       5.62518      9.51344     10.71317         0.048181     -0.696113      0.783535
Ti       9.56010      1.80240      2.25970        -0.845573      1.480217      1.005845
Ti       9.50833      1.91146     14.96985         0.081496     -0.032603      0.674351
Ti       9.48640     13.26777      2.29550        -1.573707     -0.121449     -0.170408
Ti       9.40087     13.35401     14.86117         0.050694     -0.049993      0.676868
Ti       9.47045      1.88189      6.36385         0.847273      0.045054      0.541303
Ti       9.41613     13.23912      6.35472        -0.192036      0.169905      0.210316
Ti       9.50606      1.93360     10.67184        -1.063715     -0.640574     -0.746502
Ti       9.39906     13.22607     10.80540        -0.661263      1.222186     -1.105877
Ti       9.46078      5.73134      2.23729         0.506187     -1.287512     -0.526259
Ti       9.48535      5.70070     14.92971        -0.083401      0.552588      2.312744
Ti       9.57887      5.67819      6.43837        -0.993587     -0.218856     -0.630008
Ti       9.52505      5.64538     10.73421        -1.186716      0.407341     -0.743889
Ti       9.49209      9.45987      2.27313        -1.635413     -0.238157     -0.621026
Ti       9.45504      9.55414     14.96932         1.098181     -0.749241     -0.605607
Ti       9.46146      9.50663      6.53995        -0.205910     -0.067442     -1.014111
Ti       9.51063      9.54977     10.68096        -1.017594     -1.679459      0.285228
O       1.87862      1.97012      0.50634         0.060552     -0.342905     -0.791352
O       1.97326      1.89804     13.31053        -0.619424     -0.012157     -0.429209
O       1.87407     13.31125      0.39764         0.104298      0.326902     -0.621251
O       1.82627     13.33414     13.29156         0.106759      0.215889     -0.347127
O      13.25946      2.02865      0.49781         0.063654     -0.407613      0.150294
O      13.33344      1.91601     13.25258         0.016584     -0.071418     -0.368647
O      13.23317     13.32041      0.50648        -0.370402     -0.084768     -0.160663
O      13.13841     13.31151     13.14326         0.714281      0.352381     -0.178542
O       1.99470      1.76282      4.82998        -0.367684      0.674367     -0.215935
O       1.83731     13.38515      4.79915        -0.088453     -0.245762      0.322577
O      13.22766      1.89866      4.79016         0.152946      0.058084     -0.785298
O      13.22762     13.33158      4.71019         0.041063      0.213926     -1.357850
O       1.86895      1.93609      8.93257         0.183995     -0.068302     -0.681228
O       1.90775     13.23998      9.02994        -0.159633      0.178721     -0.737541
O      13.29441      1.74957      8.91004        -0.214802      0.456771     -1.304932
O      13.20056     13.30417      8.95703        -0.294722      0.025994      0.849880
O       1.90374      5.57836      0.50755         0.159746      0.435350     -1.750090
O       1.89579      5.61789     13.17016        -0.000185      0.106760      0.297950
O      13.37008      5.74815      0.39320        -0.309038     -0.138608      0.011724
O      13.43263      5.61393     13.20175        -0.455204     -0.071428     -0.325087
O       1.91311      5.70766      4.71669        -0.028603     -0.091838     -0.361339
O      13.39172      5.70916      4.65460        -0.553192     -0.001666      0.188199
O       1.79929      5.85659      8.86915         0.049607     -0.734261     -0.453671
O      13.38267      5.72676      8.99455        -0.241356     -0.283634     -1.376268
O       1.83569      9.73950      0.57599        -0.140941     -0.345253     -0.225255
O       1.84415      9.45822     13.36757         0.111826      0.282641     -2.038844
O      13.17419      9.61442      0.37291         0.359254     -0.152088     -0.370719
O      13.46072      9.54702     13.14092        -0.684192     -0.322810      0.699808
O       1.75277      9.51314      4.66178         0.604077      0.293064      0.022334
O      13.17437      9.48477      4.83848        -0.048675      0.073347     -2.672810
O       1.86989      9.53950      8.90255        -0.344685     -0.199864     -0.671146
O      13.26603      9.52447      8.95337        -0.113766      0.255126      0.576325
O       5.64920      1.85446      0.45117         0.101335     -0.047706      0.374824
O       5.68518      1.94728     13.23756         0.197968     -0.228961     -1.206145
O       5.67743     13.34838      0.52537        -0.232418     -0.044400     -0.554133
O       5.57771     13.35164     13.14823         0.349296     -0.257543     -0.000331
O       5.62284      1.86409      4.74152         0.191368      0.238102     -1.154039
O       5.67992     13.27630      4.62057        -0.128199     -0.218598     -0.089440
O       5.66979      1.85909      8.98849         0.110325      0.022209     -0.177327
O       5.55975     13.29435      9.03405         0.129421      0.038274     -0.030594
O       5.63991      5.72333      0.52209         0.179392      0.140466     -0.973990
O       5.71490      5.63100     13.13327        -0.136811      0.133275     -0.478114
O       5.76812      5.66307      4.75445        -0.423297      0.177587     -1.251375
O       5.70646      5.73908      9.03567         0.364360     -0.107794     -1.208855
O       5.61922      9.37206      0.51537         0.078529      0.409915     -0.253785
O       5.47922      9.52600     13.23851         0.713140      0.101120     -0.065983
O       5.58342      9.32858      4.64359        -0.017907      0.446393     -0.570759
O       5.62663      9.42457      8.97710         0.260720      0.153461     -1.142051
O       9.67540      1.98247      0.55257        -0.437776     -0.448549     -1.897903
O       9.56016      1.90778     13.20393        -0.366119     -0.240766     -0.528331
O       9.40102     13.22538      0.43088         0.305990      0.269275      0.467215
O       9.35584     13.30760     13.13520         0.240959      0.395196     -1.241962
O       9.50830      1.86086      4.61777         0.035734      0.016767     -0.528760
O       9.26966     13.33277      4.57853         0.573235     -0.471669      0.183593
O       9.53023      1.96276      8.84150        -0.093540      0.159653      0.885961
O       9.33714     13.18626      8.99397         0.564598     -0.040969      0.469577
O       9.52418      5.73263      0.44290        -0.026669      0.340539     -0.083809
O       9.49699      5.80420     13.21009         0.077439     -0.268292     -1.642167
O       9.47948      5.69966      4.67239         0.362314      0.238770     -0.250440
O       9.53962      5.62474      8.94163        -0.039235     -0.428362     -0.242667
O       9.39783      9.42811      0.47058         0.341068      0.339384      0.433993
O       9.45123      9.43465     13.19651         0.196496     -0.064918     -0.875226
O       9.42139      9.46201      4.70884         0.184368      0.194518      0.547092
O       9.46140      9.55638      8.91678         0.114329      0.122518     -0.403750
O       3.81329      1.91808      2.72903        -0.504090      0.469439     -0.417352
O       3.77162      2.00778     15.42975         0.673073     -0.762272     -0.124488
O       3.70796     13.12310      2.65544         0.354837      0.627233     -0.469018
O       3.77328     13.51169     15.28588         0.486374     -0.323841      0.346319
O      15.19624      1.92579      2.64745        -0.185151     -0.576835      0.006494
O      15.14206      1.89375     15.43638         0.495556      0.082654     -0.026728
O      15.16522     13.45075      2.50838        -0.598829      0.130730      0.275674
O      15.11444     13.26841     15.34825         0.311924      0.573096      0.248080
O       3.87186      1.82565      6.94145        -0.484982      0.394044     -0.035908
O       3.69042     13.16804      6.87105         1.151075      0.562950     -0.006007
O      15.19737      1.88997      6.80798         0.032390      0.551334      0.392755
O      15.14188     13.34715      6.93789        -0.221977     -0.367243      0.062721
O       3.81135      1.90325     11.13396        -0.258861     -0.115409      0.000385
O       3.67715     13.37947     11.20030         1.105193      0.030196     -0.069106
O       0.02751      1.92098     11.06631        -0.450866     -0.209941      0.218825
O      15.16362     13.30819     11.03228        -1.063087     -0.078405      0.450365
O       3.75759      5.60547      2.63647         0.346734      0.395117     -0.110694
O       3.86601      5.74646     15.32501        -0.648065     -0.636723      0.167784
O      15.15562      5.73752      2.52493         0.924265     -0.090889      0.631736
O       0.04876      5.79228     15.31133         0.000668     -0.674670      0.218366
O       3.87281      5.80420      6.92056        -0.876878     -0.851848     -0.735034
O      15.18184      5.66228      6.75814         0.244104      0.096974      0.363479
O       3.76119      5.64479     11.09553        -0.063793      0.097651     -0.117296
O       0.00577      5.72891     11.05829         0.252548     -0.396734     -0.111844
O       3.72942      9.71888      2.49567        -0.512305     -0.221657      0.663928
O       3.77426      9.57005     15.45146         0.613343     -0.236263      0.255776
O      15.04640      9.65135      2.79819         0.340685     -0.823780     -1.256035
O       0.02299      9.57009     15.46269        -1.162137      0.142737     -0.015850
O       3.78615      9.51988      6.92320        -0.357102     -0.371414     -0.714040
O      15.11446      9.61849      6.84698         0.283803     -0.771406      0.000875
O       3.77710      9.47523     11.10543        -1.208181     -0.123140      0.083186
O       0.00108      9.49012     11.15084        -0.147470     -0.046889     -0.665454
O       7.58361      1.86524      2.59930        -0.737645     -0.408773     -0.132552
O       7.63852      1.84285     15.35394        -0.164384      0.427351      0.082415
O       7.54533     13.51135      2.54307         0.118173     -0.618084      0.104320
O       7.49133     13.42390     15.22058         1.588911     -0.462500      0.510994
O       7.59705      1.94310      6.75537         0.151954     -0.280107      0.275889
O       7.56154     13.24833      6.88065        -0.889697      0.098493     -0.238792
O       7.57111      1.93781     11.01668         0.637327     -0.056185      0.595494
O       7.50264     13.16854     11.06976         0.782011     -0.186915      0.455054
O       7.64569      5.82410      2.56009        -2.028352     -0.048410      0.108900
O       7.57196      5.78033     15.26746         0.458892     -0.507803      0.206069
O       7.67828      5.71203      6.82863        -0.576921      0.159696      0.304599
O       7.63080      5.69162     11.15658        -0.091321      0.202637      0.102795
O       7.51844      9.34728      2.65466         0.775225     -0.280799      0.114781
O       7.59790      9.50840     15.21498        -1.432319      0.349821      0.455733
O       7.48324      9.40721      6.86840         1.118841      0.399103     -0.195114
O       7.57581      9.43719     11.07899         0.441154      0.576152      0.228786
O      11.41722      1.97398      2.55488        -0.458046      0.127061      0.855120
O      11.40254      1.97302     15.17079        -0.584334     -0.033645      0.838337
O      11.30511     13.17927      2.59868         0.040756      0.085611      0.201499
O      11.33063     13.24277     15.25575        -0.252620      0.474898      0.307130
O      11.36128      1.94611      6.76585         0.041437     -0.364718      0.565503
O      11.27457     13.37986      6.71491         0.539316     -0.344387      0.395247
O      11.38715      1.85565     11.05418        -0.142960     -0.004655      0.065963
O      11.34014     13.27724     11.19328         0.144614      0.475756     -0.564143
O      11.48923      5.73420      2.45050        -2.159192     -0.114452      0.698310
O      11.40026      5.80818     15.18054        -0.188870     -0.146318      0.337795
O      11.42374      5.62733      6.80202        -0.040019      0.211024      0.360924
O      11.36089      5.57777     11.05599         1.019755      0.129654      0.582037
O      11.35701      9.56310      2.68856         0.363309     -0.185310     -0.628216
O      11.40392      9.53908     15.26774         0.252399     -0.102980      0.044915
O      11.30370      9.52903      6.84193         0.712806      0.135331      0.399850
O      11.42239      9.65019     11.10673        -0.132404     -1.275004     -0.198305
O       1.75600      3.77872      2.63610         0.767306      0.700171      0.328976
O       1.89286      3.82771     15.44198        -0.251309      0.118657     -0.334214
O       1.92655      0.05886      2.64113         0.101470     -0.374263     -0.137074
O       1.79022      0.02096     15.32962        -0.018642      0.079184      0.644249
O      13.25341      3.80656      2.65044         0.476377      0.796288      0.033455
O      13.23073      3.80501     15.38134         0.515573      0.421991      0.036775
O      13.02186      0.01720      2.56792         0.765137      0.237678      0.217568
O      13.18654     15.18764     15.37525         0.315282      0.226933     -0.010722
O       1.95280      3.85218      6.84683        -0.050720     -0.641780      0.202818
O       1.90818      0.05446      6.94757        -0.041986     -1.066477      0.377530
O      13.24925      3.84056      6.94358         0.498653     -0.778387     -0.021106
O      13.27146      0.00316      6.83577        -0.288476      0.202849      0.260343
O       1.87117      3.74891     11.04023         0.082642      0.945358      0.089491
O       1.88595     15.19202     11.03128        -0.246964      0.257049      0.464122
O      13.28085      3.71829     10.97237         0.119630      0.856098      0.287497
O      13.45134      0.02751     11.10987        -1.107613     -0.529000      0.198481
O       1.87106      7.68586      2.50276         0.069294     -0.604477      0.255417
O       1.94451      7.62509     15.38344        -0.155974     -0.585608      0.447325
O      13.28212      7.64919      2.58489         0.011244      0.846556     -0.311934
O      13.41365      7.58401     15.26171        -0.410380      1.057826      0.140236
O       1.90339      7.62248      6.80236        -0.435544      0.003959     -0.026431
O      13.20363      7.56107      6.89725         0.315149      0.242483     -0.355466
O       1.93916      7.60378     11.08204        -0.545562     -0.565078     -0.193409
O      13.25733      7.55963     10.99913        -0.193359      0.532733      0.494885
O       1.72551     11.57220      2.65187        -0.166267     -1.185543      0.308612
O       1.94167     11.44491     15.40234        -0.099617      0.318565      0.059659
O      13.23213     11.46067      2.67892        -0.097898     -0.583931     -0.224158
O      13.24672     11.46092     15.33665         0.147796     -0.878644     -0.075758
O       1.86874     11.31039      6.94351        -0.234731      1.374643     -0.349135
O      13.22332     11.46928      6.77577        -0.303550     -0.640170      0.610547
O       1.93888     11.36332     11.15805        -0.507214     -0.486065      0.016006
O      13.30260     11.41449     11.14535         0.056367      0.056709     -0.447742
O       5.71527      3.79790      2.53691        -0.167877      0.065930      0.156091
O       5.77993      3.77867     15.40827        -0.180695      0.440654     -0.249109
O       5.54521     15.14240      2.58442        -0.216411      1.367843      0.231910
O       5.74392      0.02000     15.39196        -0.587761      0.084380     -0.009750
O       5.71029      3.78811      6.81106         0.152083     -0.242397      0.293518
O       5.67829     15.09781      6.67122         0.186302      0.509143      0.731295
O       5.71779      3.84244     11.13515        -0.216211     -1.029038      0.039653
O       5.80663      0.00614     11.08265        -0.548461      0.035998      0.359098
O       5.52248      7.61919      2.56840        -0.451043     -1.622550      0.282697
O       5.69438      7.55161     15.32283        -0.190920      1.093883      0.031380
O       5.69209      7.55973      6.79880         0.134154      0.333439      0.336447
O       5.63453      7.60829     11.18490         0.271758     -0.283312      0.099119
O       5.76705     11.35343      2.59306         0.026056      0.577019      0.130715
O       5.66900     11.43501     15.44310         0.018149      0.105974     -0.410686
O       5.61747     11.34014      6.69262         0.462760      0.325434      0.416520
O       5.54502     11.35477     11.09403         0.484644      0.714519      0.286472
O       9.38530      3.83795      2.56649         0.623873     -0.143619      0.349336
O       9.45844      3.84751     15.48134         0.159526     -0.333894     -0.927555
O       9.46059     15.19361      2.64156         0.733130     -0.753227     -0.307346
O       9.51923      0.01898     15.41607         0.096910     -0.129762     -0.428507
O       9.49056      3.81437      6.62483        -0.018379     -0.847795      0.867262
O       9.39841     15.16632      6.76589         0.040881      0.382155      0.090939
O       9.38247      3.74120     11.24753         0.891099      0.380692     -0.503318
O       9.38804     15.19095     10.92570         0.246636      0.144008      0.665040
O       9.54180      7.56425      2.76121         0.313629      0.853913     -0.520389
O       9.39049      7.70518     15.37098         0.640158     -1.706721     -0.034955
O       9.55655      7.57142      6.80783        -0.353959      0.412340      0.274497
O       9.52070      7.56311     10.90674         0.515811      0.637786      0.752334
O       9.18096     11.32033      2.51854         0.824662      0.728652      0.241315
O       9.43460     11.45555     15.14328        -0.217485      0.256626      0.832707
O       9.38246     11.38256      6.77597         0.195829      0.019643      0.107773
O       9.60755     11.34206     11.14100        -1.078665      0.820167     -0.044122
