  # total energy = -7868.97294858 
CRSYTAL
PRIMVEC
    15.010000000000000    0.0000000000000000    0.0000000000000000
     0.0000000000000000   15.010000000000000    0.0000000000000000
     0.0000000000000000    0.0000000000000000    16.400000000000000
PRESSURE
19.3372 19.2934 10.2498 -0.136248 0.069319 0.047392
PRIMCOORD
320 1
Pb       3.65908      3.74393      4.07592         0.290063      0.074748      0.517575
Pb       3.73432      3.70511      0.01516         0.200943      0.454234      0.186933
Pb       3.78487     14.95261      4.10294        -0.054757     -0.145141      0.079667
Pb       3.67059     14.97619      0.03101         0.496604      0.439139     -0.317839
Pb       0.01251      3.73381      4.09738        -0.029695      0.080440      0.046927
Pb       0.00398      3.83166      0.00891         0.216700     -0.140100      0.866562
Pb       0.03019     14.96280      4.02779         0.069914     -0.123455      0.703628
Pb      15.00282      0.02306     16.35756         0.137861      0.099833      0.611346
Pb       3.83320      3.76814      8.14311        -0.665952     -0.314604      0.834096
Pb       3.75600     14.92941      8.20516        -0.257684      0.744758      0.588080
Pb       0.00644      3.71129      8.10996         0.432419     -0.207449      0.619055
Pb       0.07095      0.03826      8.23106        -0.056663      0.038429      0.356473
Pb       3.72071      3.71872     12.35186         0.002567      0.134863      0.510591
Pb       3.77152     14.96913     12.27244        -0.508504     -0.011711      0.873641
Pb      14.97481      3.76207     12.25664         0.431927     -0.093371      0.353617
Pb      14.95950     14.99558     12.30756         0.072358      0.555410      0.412723
Pb       3.79808      7.44697      4.13088        -0.653391      0.511489      0.302294
Pb       3.68974      7.50796     16.31878         0.171621     -0.433911      1.029767
Pb      14.89801      7.50144      4.07754         0.903736     -0.093690      0.426919
Pb      14.98909      7.52518     16.35346         0.374257     -0.360456      0.279590
Pb       3.75179      7.42556      8.27027         0.134479      0.225555      0.157305
Pb      14.92951      7.44933      8.11619         0.755766      0.673275      0.843523
Pb       3.75113      7.42674     12.35195        -0.164130      0.461457      0.205387
Pb      14.98521      7.55857     12.29875         0.321827      0.009721      0.883963
Pb       3.74440     11.30269      4.02154        -0.373897     -0.295447      0.576576
Pb       3.71273     11.37298      0.01151         0.274780     -1.334942      0.219395
Pb      14.90083     11.32715      4.08304         0.994960     -0.373244      0.236532
Pb      14.93696     11.14242     16.36266         0.305915      0.208862      0.332863
Pb       3.73308     11.28496      8.20889        -0.439601     -0.512373      0.832551
Pb      14.91430     11.27318      8.18158         0.454842     -0.582798      0.803843
Pb       3.70249     11.20762     12.33926         0.098534     -0.093351      0.392838
Pb      14.94043     11.22255     12.31036         0.247489     -0.411854      0.286140
Pb       7.45954      3.65183      4.19444         0.217714      0.556694     -0.839806
Pb       7.46271      3.67816      0.03968        -0.124986      0.764121      0.078788
Pb       7.48344      0.04683      4.10287        -0.175841     -0.658412     -0.000860
Pb       7.59320      0.06424      0.05579        -0.354954     -0.637875     -0.025811
Pb       7.51605      3.76651      8.18097        -0.166999     -0.002609      1.121704
Pb       7.50282     14.83904      8.21158        -0.309175      0.604280      0.709668
Pb       7.58442      3.68507     12.31561        -0.147005     -0.076268      0.301452
Pb       7.47660      0.05425     12.33175         0.190919     -0.082906      0.226558
Pb       7.49076      7.49654      4.20252         0.097372      0.097576     -0.330375
Pb       7.44437      7.48873      0.01530         0.147568     -0.322538      0.378835
Pb       7.44924      7.53125      8.09120        -0.220591     -0.281429      1.296688
Pb       7.42986      7.44645     12.28303         0.463918      0.395358      0.647255
Pb       7.37601     11.22685      4.08809         0.261677      0.150444      0.128537
Pb       7.46828     11.20146     16.37432         0.208573      0.622195      0.462219
Pb       7.39963     11.20228      8.25671         0.355212      0.268973      0.562443
Pb       7.45292     11.20333     12.40659         0.527261      0.152887     -0.002829
Pb      11.34877      3.68882      4.08391        -0.236417      0.282896      0.490058
Pb      11.19752      3.69464      0.00309         0.286805      0.612421      0.145614
Pb      11.16743      0.02485      4.07826         0.245295     -0.234788      0.704279
Pb      11.31196      0.05021     16.36643        -0.627240     -0.510187      0.535332
Pb      11.22869      3.69970      8.18144         0.164150      0.539118      1.007303
Pb      11.23818     14.97200      8.16164        -0.118467     -0.289177      0.723035
Pb      11.29877      3.74549     12.34014        -0.699718      0.375191      0.012639
Pb      11.26202     14.92055     12.24462         0.066249      0.152700      0.518102
Pb      11.19700      7.48210      4.04075         0.488951      0.141580      1.171315
Pb      11.28563      7.51265     16.35312        -0.325752     -0.285646      0.339164
Pb      11.32492      7.53020      8.16158        -0.431582     -0.034852      0.506504
Pb      11.26799      7.58031     12.33233        -0.426082     -0.504291      0.501667
Pb      11.17085     11.27073      4.07976        -0.064515     -0.443224      0.425328
Pb      11.24690     11.32628     16.37102        -0.464983     -0.213450      0.347354
Pb      11.22685     11.19389      8.09606        -0.001550      0.257895      1.520423
Pb      11.30545     11.17867     12.31926        -0.504185      0.291408      0.042473
Ti       1.91492      1.87060      2.11150        -1.090339     -0.092544     -0.550613
Ti       1.83812      1.89537     14.45710         0.688358     -0.506716      0.183604
Ti       1.87537     13.09684      2.06003        -0.985382     -0.273146      0.653863
Ti       1.86993     13.11978     14.41426         0.361049      0.390804     -0.447808
Ti      13.16257      1.80042      2.23317         0.026647      0.653930     -0.323547
Ti      13.12061      1.90860     14.46327         0.392090     -0.667887     -1.112225
Ti      13.07348     13.08579      2.18468         1.179389      0.392237     -0.728782
Ti      13.18049     13.14109     14.53526        -1.632912     -0.492542     -0.845497
Ti       1.89168      1.82280      6.16964        -0.087642      0.674442      1.020167
Ti       1.83904     13.07195      6.27778        -0.361566      0.853850     -1.103463
Ti      13.07237      1.80518      6.27992         1.265972      0.228474     -0.504935
Ti      13.08489     13.08380      6.29537         0.480320      0.495088     -1.096715
Ti       1.88880      1.89112     10.39324        -0.728894     -0.620501     -1.514415
Ti       1.81834     13.11670     10.41021         0.380535     -0.691202     -0.225708
Ti      13.07536      1.92571     10.31788         0.572419     -1.269136     -0.214437
Ti      13.14073     13.10654     10.35886        -1.199530     -0.234437     -0.594064
Ti       1.93011      5.63563      2.17798        -0.269256     -0.151558     -1.342769
Ti       1.89140      5.58603     14.43099        -0.647407      0.113331      0.788147
Ti      13.13961      5.65589      2.19784         0.658209     -1.383835     -1.320545
Ti      13.15624      5.55154     14.47936        -0.635542      1.480886     -0.051234
Ti       1.92774      5.61547      6.27983        -0.381252      0.017613     -0.414069
Ti      13.15048      5.62759      6.29909        -0.338027     -0.898135     -1.152855
Ti       1.84399      5.63669     10.33021         0.512949     -0.567054     -0.883594
Ti      13.13477      5.61400     10.32054        -0.667782      0.869023     -0.289414
Ti       1.91178      9.33061      2.16141        -0.231989      0.362411     -0.498021
Ti       1.89325      9.40244     14.58128        -0.682448     -0.975898     -1.358889
Ti      13.16613      9.36128      2.12436        -0.513194      0.206149     -0.290654
Ti      13.03313      9.33186     14.48278         0.892486      0.872835     -1.018205
Ti       1.89798      9.37484      6.27212        -1.018859     -0.241516     -1.164890
Ti      13.13124      9.37537      6.18760         0.215086     -0.213966     -0.302453
Ti       1.91064      9.32344     10.37920        -0.825791      0.983596     -0.332758
Ti      13.11124      9.31589     10.37315        -0.446471      0.562378     -0.894635
Ti       5.60179      1.88478      2.10767         0.198650     -0.042800     -0.348249
Ti       5.63778      1.84415     14.48759        -0.588067      0.319108     -0.348512
Ti       5.58307     13.12243      2.00970         1.083839      0.977819      0.480233
Ti       5.63510     13.13799     14.46751         0.532152     -0.064461      0.321489
Ti       5.59200      1.87213      6.23228         1.057650     -0.730857     -0.702902
Ti       5.54688     13.08663      6.32067         0.661088      0.385430     -1.229738
Ti       5.54971      1.85108     10.40952         1.513370     -0.054290     -0.496311
Ti       5.61983     13.08723     10.40644        -0.488198      0.001345      0.402799
Ti       5.68488      5.65063      2.19497        -0.263021     -0.272982     -1.058993
Ti       5.62403      5.58476     14.43514        -0.115345     -1.369642      0.858502
Ti       5.66959      5.60154      6.19677        -0.522850      1.222667      0.224437
Ti       5.61029      5.53794     10.38030        -0.030482      0.809537     -0.458304
Ti       5.59857      9.36734      2.15473        -0.308058      0.010340     -0.377214
Ti       5.65259      9.31952     14.44741        -2.293545      0.988330     -0.352116
Ti       5.52176      9.39465      6.24241         0.325304     -0.515446      0.072586
Ti       5.65248      9.36010     10.36661        -0.576541     -0.201134     -0.059898
Ti       9.38030      1.91227      2.12364        -0.368514     -0.546143      0.297134
Ti       9.36513      1.89849     14.45248         0.156439     -0.271032     -0.059272
Ti       9.34345     13.12634      2.20637        -0.309647     -0.236184     -1.347253
Ti       9.37291     13.15390     14.42147         0.004070     -0.574395     -0.208012
Ti       9.31074      1.87801      6.27873         0.275252     -0.848164      0.274548
Ti       9.30175     13.06845      6.30251        -0.450171      0.697405     -0.888816
Ti       9.40148      1.86073     10.27819        -1.636058      0.255211      0.075447
Ti       9.31480     13.10835     10.46538         0.362616     -1.149838     -0.526750
Ti       9.40061      5.65491      2.14583        -0.857878     -1.234751     -0.460339
Ti       9.38133      5.67636     14.45912        -0.455986     -0.149446     -0.217331
Ti       9.38926      5.59445      6.27728         0.342465      0.772647     -1.082164
Ti       9.31136      5.64942     10.40667         1.520829     -0.948999     -0.082106
Ti       9.39977      9.34793      2.17384        -1.096752      0.651914     -0.834414
Ti       9.29369      9.38479     14.48750         0.322162     -0.003722     -1.143350
Ti       9.33280      9.36641      6.30353        -0.028478      0.154704     -1.478483
Ti       9.35667      9.32023     10.27810         0.604291      0.969389      1.309904
O       1.91747      1.81293      0.28074        -0.243944     -0.160444      0.754090
O       1.81075      1.87230     12.69601        -0.141109      0.302620     -1.590247
O       1.74166     13.15837      0.29536         0.448897     -0.015453     -0.728568
O       2.00902     13.07250     12.59208        -0.626062      0.135273      0.974960
O      13.04417      1.84786      0.45292         0.086650     -0.223977     -0.730401
O      13.09535      1.84454     12.62134         0.204494      0.335644      0.338196
O      13.05552     13.11901      0.36682         0.336854      0.038417     -0.105927
O      13.07421     13.12007     12.71430        -0.031767      0.049144     -0.153092
O       1.89692      1.87632      4.39749         0.005473     -0.042073     -0.655646
O       2.00519     13.12067      4.46560        -0.645331      0.018217      0.051097
O      13.16728      1.84263      4.46489        -0.264412      0.025050      0.283777
O      13.17063     12.95356      4.44479        -0.471528      0.443262      0.699218
O       1.96147      1.78548      8.53034         0.080037      0.157736      1.084139
O       1.63715     13.12182      8.61079         0.647789      0.047479     -0.677215
O      13.06585      1.89246      8.49547        -0.031080     -0.359039      0.606501
O      13.14021     13.07946      8.54202         0.031931      0.195315      0.035953
O       1.97138      5.58060      0.35512        -0.551967      0.085498      0.747658
O       1.76560      5.55101     12.65531         0.577666     -0.088004     -0.662560
O      13.08085      5.67575      0.35799        -0.001438     -0.164936      0.469189
O      13.12430      5.52774     12.70822         0.222731     -0.203509     -0.745302
O       1.83010      5.45411      4.45682         0.306426      0.563591      0.202292
O      13.13654      5.61398      4.44317         0.090688     -0.127549      0.361559
O       1.80872      5.53398      8.47036         0.312480      0.656689      1.019743
O      13.22955      5.64027      8.48056        -0.397743      0.105127      0.849929
O       1.86171      9.34861      0.29638        -0.038512     -0.117111      0.748364
O       1.87683      9.35535     12.76735        -0.187413      0.041105     -0.836389
O      13.11764      9.37345      0.30076        -0.050551     -0.332466      0.022944
O      13.12242      9.48131     12.62957        -0.153321     -0.348156      0.829014
O       1.95947      9.32998      4.46026        -0.539647      0.189545      0.442461
O      13.16290      9.31193      4.37790        -0.012670      0.322229      0.005294
O       1.84011      9.32273      8.59379         0.222837     -0.030242     -0.043043
O      13.06332      9.26626      8.53596        -0.052005      0.033133      0.180137
O       5.64351      1.82684      0.29989        -0.433365     -0.264691      0.436518
O       5.73449      1.88477     12.66435        -0.293720      0.046846     -0.325394
O       5.67090     13.26965      0.25019        -0.288394     -0.532273      0.261627
O       5.53216     13.08461     12.69061         0.016251      0.241481     -0.856236
O       5.65485      1.89607      4.38147         0.077246     -0.095648      0.663586
O       5.45353     13.06775      4.52050         0.502171      0.274174     -0.572686
O       5.45671      1.80157      8.62165         0.411319      0.099899     -0.887015
O       5.66707     13.13704      8.60791        -0.239582     -0.319823     -0.905263
O       5.60606      5.57671      0.39575         0.260430      0.634472     -0.119259
O       5.50033      5.40965     12.66323         0.365948      0.528215     -0.274822
O       5.61300      5.72084      4.41808         0.437311     -0.846140     -0.017517
O       5.68856      5.67729      8.57262        -0.061001     -0.258284      0.185153
O       5.50409      9.27964      0.36705         0.510580      0.219141     -0.193400
O       5.64888      9.54630     12.64825         0.059986     -1.244982      0.473718
O       5.44186      9.42491      4.43918         0.682265     -0.070085      0.514499
O       5.57000      9.37342      8.52969        -0.070745      0.008805      1.069340
O       9.42795      1.82782      0.32669         0.197896      0.281801     -0.019177
O       9.26860      1.85566     12.69121         0.357701     -0.124078     -0.618642
O       9.43903     13.01213      0.37834        -0.298899      0.549036      0.805327
O       9.29465     13.07009     12.59648         0.556919      0.410160      0.617486
O       9.34692      1.78158      4.47788        -0.325031      0.387524     -0.266557
O       9.31822     13.19121      4.48868         0.195044     -0.337308     -0.272129
O       9.32030      1.87718      8.47430         0.411501     -0.121156      0.017674
O       9.22722     13.01056      8.63189         0.221013      0.423311     -0.331810
O       9.30380      5.64587      0.31965         0.503310     -0.158307      1.137341
O       9.35928      5.71429     12.64575         0.186968     -0.268709      0.361306
O       9.28601      5.54321      4.44466         0.624096      0.258397      1.182374
O       9.24377      5.54953      8.62272         0.302016      0.272106     -0.607449
O       9.26557      9.35165      0.35475         0.259500      0.128835      0.875657
O       9.30505      9.23413     12.68293        -0.265945      0.344252      0.306397
O       9.31752      9.33647      4.45471         0.189842     -0.017841      0.711547
O       9.45206      9.44250      8.50225        -0.252179     -0.353447     -0.879058
O       3.71418      2.06534      2.45446         0.911299     -0.460634     -0.265594
O       3.74301      1.98470     14.67834         0.041016     -0.799388     -0.000105
O       3.74224     13.02208      2.30114        -0.191277      0.120434     -0.030692
O       3.76090     13.07661     14.88261        -1.180148      0.636588     -0.661792
O       0.02874      1.69233      2.43373        -0.031865      0.043873     -0.072354
O      14.95575      1.87310     14.79127        -0.116525      0.058271      0.156077
O      14.99348     13.22104      2.41806         0.291405     -0.508822      0.200998
O      15.00118     13.02165     14.66587         0.363344      0.491756      0.207950
O       3.84516      1.73586      6.47352        -1.940976     -0.124585      0.182060
O       3.70042     13.16162      6.57758        -0.433849      0.273837      0.767855
O       0.05656      1.92809      6.52869        -1.116326      0.444905     -0.091410
O      14.97054     12.94738      6.51918         0.179760      0.193037     -0.252902
O       3.71922      1.95346     10.80188        -0.036181     -0.134925     -0.105028
O       3.71693     12.92705     10.54590         0.010975      0.159120      0.030763
O       0.00472      1.67833     10.59868        -0.780191      0.597649     -0.010715
O      14.94021     13.26210     10.80213         0.499140     -0.784257     -0.379502
O       3.79923      5.46910      2.49507        -0.121004     -0.055403      0.086620
O       3.69189      5.54660     14.84022         1.558396     -0.143497     -0.778151
O       0.02735      5.66811      2.35101        -0.543984      0.481634      0.489217
O      15.00885      5.66599     14.79636        -0.359834     -0.500442      0.033075
O       3.82778      5.70812      6.59420        -1.150250      0.271016     -0.184848
O      15.00275      5.46524      6.51843         0.382472      0.006893     -0.237343
O       3.73911      5.56967     10.64827        -0.233526     -0.403488     -0.062474
O       0.03332      5.71764     10.68832        -0.760158      0.033462     -0.223810
O       3.72331      9.45020      2.49053         0.380263     -0.055045     -0.395616
O       3.71402      9.32739     14.74389         1.417019      0.234426      0.034033
O       0.00623      9.16136      2.33906        -0.122368      0.306651      0.321114
O      14.98534      9.27148     14.67265        -0.724433      0.359185      0.566511
O       3.70083      9.17132      6.68303         0.236035      0.550871     -0.244438
O      14.95771      9.48126      6.53183         0.777573     -0.195476     -0.078056
O       3.77447      9.46607     10.80080        -0.163874     -0.356465     -0.894434
O      14.90841      9.26121     10.67664         2.248033     -0.064006     -0.011037
O       7.45770      1.66949      2.34474         1.013531      0.040380      0.320411
O       7.52303      1.81300     14.89836         0.054282      0.082650     -0.563125
O       7.46463     13.12391      2.41988         0.056593      0.636878      0.285788
O       7.50915     13.15188     14.77777        -0.152020     -0.028766     -0.120495
O       7.49097      2.03826      6.57162        -0.507511     -0.164267     -0.309410
O       7.44230     12.88658      6.57963         0.005912      0.234648     -0.065126
O       7.54794      1.73994     10.67099        -1.353974      0.164824     -0.341887
O       7.43931     13.17552     10.74688         0.163500      0.585428     -0.120373
O       7.55294      5.78321      2.51329        -0.301012      0.126621     -0.152109
O       7.46126      5.59134     14.76633         0.537669      0.324828     -0.224321
O       7.50108      5.57096      6.58188         0.326099     -0.445700     -0.242745
O       7.49812      5.62849     10.79678        -0.610520      0.247344     -0.463775
O       7.44652      9.18983      2.49192         0.694399      0.519922     -0.058962
O       7.40513      9.37075     14.82623         1.223088     -0.417180      0.051113
O       7.41464      9.55962      6.58475         0.718403     -0.555440     -0.515416
O       7.53593      9.22343     10.64099        -1.097387     -0.525008     -0.253018
O      11.24493      1.95355      2.50280        -0.102731     -0.208719     -0.021399
O      11.27693      1.86164     14.68225        -0.761143      0.375011      0.512063
O      11.27181     12.96496      2.44637        -1.281819      0.226458      0.354638
O      11.25393     13.03517     14.76055        -0.449610      0.361876     -0.179257
O      11.20877      1.69076      6.52151         0.043866     -0.116695     -0.081082
O      11.19627     13.20178      6.58845         0.400264      0.152936     -0.119080
O      11.18655      2.06588     10.66079         2.167956     -0.813864     -0.124041
O      11.21505     12.96030     10.60887         0.255961      0.381379      0.280963
O      11.28674      5.42679      2.51511        -0.959902      0.286060     -0.352707
O      11.21728      5.58168     14.79410         0.616207      0.003574     -0.024151
O      11.28444      5.76131      6.62900        -1.043531     -0.287173     -0.426461
O      11.30395      5.45049     10.66522        -0.223871      0.395502     -0.339025
O      11.25455      9.42453      2.37279        -0.045722      0.030438      0.384698
O      11.14184      9.36074     14.64366         1.527347      0.325347      0.530595
O      11.26272      9.23501      6.44660        -0.763048      0.049089      0.224800
O      11.22288      9.38742     10.74239        -0.054188      0.288252     -0.368902
O       1.73743      3.74278      2.37512         0.073589     -0.680888      0.285812
O       1.86151      3.69219     14.83485        -0.644221      1.404172     -0.209344
O       1.98587     14.94531      2.36452         0.305331      0.944603      0.321820
O       1.73421      0.01810     14.62432         0.579378     -1.614801      0.536716
O      13.28831      3.68741      2.44107        -0.380552      0.477356      0.238109
O      13.15580      3.75224     14.85797        -0.349471     -0.736255     -0.085501
O      13.07191     14.93394      2.59859        -0.462975      0.255609     -0.377593
O      13.03137      0.01783     14.84788         0.858304     -0.425124     -0.553683
O       2.07493      3.71461      6.57129        -0.310649     -0.075301     -0.346828
O       1.73833      0.01570      6.52943         0.523071     -1.328390     -0.029663
O      12.96548      3.69781      6.61400         0.330226      0.191976     -0.719087
O      13.29969     14.94300      6.56971        -0.664426      0.333181     -0.131243
O       1.78830      3.74076     10.56373        -0.143564      0.144771      0.393698
O       1.93514     14.95362     10.67556         0.375425      0.730716      0.093186
O      13.25609      3.77843     10.58393         0.316339     -0.951165      0.154838
O      13.02468     14.99356     10.60493        -0.573875      0.561682      0.012411
O       2.06738      7.47669      2.45890        -0.368273     -0.208458      0.083491
O       1.88034      7.41293     14.80680        -0.081839      0.816866     -0.299468
O      13.04880      7.48519      2.46750        -0.369230      0.073457     -0.020131
O      13.04943      7.49400     14.65797        -0.012018     -0.455893      0.353150
O       1.71385      7.49695      6.53486         0.182858     -0.768681     -0.100214
O      13.20999      7.49051      6.52696         0.171639      0.031120     -0.252090
O       2.04496      7.49398     10.74119        -0.651955     -0.547178     -0.265297
O      13.08532      7.48640     10.80619        -0.293957     -1.121137     -0.623542
O       1.83220     11.20569      2.38413        -0.575049      0.564767      0.090576
O       1.83035     11.24798     14.81581         0.189891      0.680825     -0.128570
O      13.21437     11.20373      2.46038         0.126232     -0.046790     -0.227529
O      13.10804     11.22110     14.80947         0.100304      0.200826     -0.156931
O       1.94068     11.24882      6.58566         0.210205     -0.535224      0.158325
O      13.04472     11.20935      6.60614        -0.376595      0.169551     -0.426677
O       1.72242     11.18692     10.64309        -0.122937      0.387258      0.169775
O      13.15471     11.19386     10.60943         0.288335      0.933273      0.138478
O       5.87130      3.75562      2.27869        -0.176942     -0.316256      0.966064
O       5.68615      3.67737     14.85392        -0.141985      1.195916     -0.207631
O       5.44438      0.00555      2.38489         0.017773     -0.529020      0.290779
O       5.59044      0.01359     14.71731        -0.149294     -0.651922     -0.041168
O       5.51511      3.78204      6.48511         0.387659     -0.967829      0.042279
O       5.70999     14.93284      6.46496         0.410585      1.445213      0.401044
O       5.67696      3.71199     10.56941         0.119418     -0.033146      0.236212
O       5.39533     14.99515     10.63538         0.610897     -0.613964      0.126099
O       5.48916      7.54010      2.57519         0.202876     -0.791042     -0.553819
O       5.62198      7.43065     14.66281        -0.223277      0.534816     -0.047523
O       5.69505      7.51357      6.59712         0.102147     -0.151700     -0.555138
O       5.51925      7.45595     10.78103         0.293871      0.428619     -0.339108
O       5.62920     11.29661      2.39457         0.323053     -0.929046     -0.027505
O       5.63937     11.23616     14.78629        -0.313548      0.013871      0.227848
O       5.44195     11.24209      6.54001        -0.286970     -0.762220      0.436426
O       5.74491     11.21328     10.72875        -0.029906      0.060021     -0.736478
O       9.17612      3.70028      2.47405         0.386199      0.708743     -0.147576
O       9.34010      3.76584     14.66280         0.174564     -0.243337      0.357833
O       9.46736      0.00938      2.47450        -0.070287     -0.720611     -0.185247
O       9.36407     14.99570     14.67278         0.444268     -0.095780      0.380907
O       9.53999      3.77205      6.62051        -0.630024     -0.760971     -0.708578
O       9.12570     14.95486      6.58857         0.626823      0.621903     -0.197039
O       9.35348      3.69722     10.68033        -0.630956      0.979658      0.104216
O       9.47822     15.00968     10.66129         0.043356     -0.504232     -0.231490
O       9.49913      7.46862      2.53020        -0.116850      0.241352     -0.558418
O       9.39956      7.54523     14.87489        -0.621061     -1.059405     -0.238897
O       9.19813      7.49393      6.58367         0.590740      0.042880     -0.305212
O       9.58232      7.47142     10.69260        -0.813785     -0.137222     -0.677541
O       9.25170     11.21921      2.57060         0.260960      0.028218     -0.233007
O       9.26903     11.24073     14.78640         0.154111      0.240100     -0.172339
O       9.49067     11.24386      6.50744         0.010702     -0.703475     -0.076263
O       9.17019     11.16127     10.73900         0.589496      0.419082     -0.417052
