  # total energy = -7878.80917168 
CRSYTAL
PRIMVEC
    15.2000000000000000    0.0000000000000000    0.0000000000000000
     0.0000000000000000   15.2000000000000000    0.0000000000000000
     0.0000000000000000    0.0000000000000000    17.000000000000000
PRESSURE
8.41525 8.2234 4.63505 0.247146 -0.228103 -0.012682
PRIMCOORD
320 1
Pb       3.64114      3.83084      4.30801         0.701991     -0.119065     -0.236123
Pb       3.91449      3.87777     16.99221        -0.631423     -0.267294     -0.168443
Pb       3.65964      0.15965      4.27198         0.531143     -0.168316      0.109366
Pb       3.83067     15.17362     16.91393        -0.257307      0.028378      0.531108
Pb       0.06894      3.84577      4.21018        -0.241124      0.096681     -0.051928
Pb       0.15312      3.93584     16.94974        -0.306040     -0.549570     -0.224641
Pb      15.15300      0.16597      4.46248        -0.030821     -0.316912     -0.763769
Pb       0.05122     15.11801     16.96591        -0.203533     -0.157836     -0.072075
Pb       3.89998      3.86511      8.34564        -0.107743     -0.184440      0.858970
Pb       3.82019     15.06485      8.67365         0.318094      0.115773     -0.565088
Pb       0.13329      3.62083      8.63001        -0.874921      0.752778     -0.538529
Pb      14.96617     15.16261      8.47238         0.101919      0.008739     -0.010821
Pb       3.85361      3.59787     12.56030        -0.516397      0.926215      0.241329
Pb       3.81795      0.08757     12.84873        -0.260534     -0.818645     -0.942066
Pb      15.13995      3.84133     12.67741         0.046627      0.100446      0.093665
Pb       0.05906      0.00649     12.84044        -0.155917     -0.101397     -0.229176
Pb       3.71924      7.62697      4.32757         0.159140     -0.047492     -0.189705
Pb       3.72167      7.63234     16.95970        -0.192840     -0.071738     -0.098207
Pb      15.10216      7.75598      4.34645        -0.020497     -0.691798     -0.310704
Pb      15.05623      7.46661     16.90749         0.956324      0.474248     -0.260865
Pb       3.84329      7.58042      8.35555        -0.294923      0.022562      0.247824
Pb      15.06252      7.53367      8.49460         0.539624     -0.135621     -0.405853
Pb       3.66485      7.49322     12.69239         0.290293      0.444506     -0.015479
Pb       0.03034      7.49951     12.81717        -0.443541     -0.062853     -0.398745
Pb       3.57791     11.41912      4.32467         0.679535      0.058079     -0.001246
Pb       4.01685     11.41051      0.16342        -0.995250     -0.229663     -0.340678
Pb       0.02329     11.43252      4.19364        -0.876084      0.327971      0.342750
Pb       0.10538     11.32186     16.84020        -0.774417      0.357758      0.650137
Pb       3.66177     11.37313      8.57190         0.622274      0.140995     -0.776336
Pb      15.15930     11.34290      8.61886        -0.352271      0.561879     -0.992167
Pb       3.73636     11.26016     12.65360         0.206038      0.593760      0.486526
Pb      15.12605     11.06017     12.96050        -0.202283      1.091434     -0.286384
Pb       7.55178      3.83058      4.27657         0.256328     -0.090501     -0.242656
Pb       7.61625      3.78743      0.11364         0.023087      0.044654     -0.421049
Pb       7.56548     15.09605      4.22823        -0.062536      0.271768      0.026230
Pb       7.68846     15.10485     16.95990        -0.326480      0.227437      0.164082
Pb       7.67514      3.57827      8.46284        -0.098360      1.274520     -0.607332
Pb       7.64240      0.06577      8.55272        -0.313440     -0.997047     -0.731756
Pb       7.70136      3.70720     12.76478        -0.218856      0.731111     -0.166101
Pb       7.58141     15.11904     12.82312        -0.148172     -0.064201     -0.381054
Pb       7.68245      7.45647      4.08888        -0.071152      0.922844      0.337472
Pb       7.68513      7.69781      0.10187        -0.316545     -0.298197     -0.149722
Pb       7.56255      7.62382      8.31924        -0.128196     -0.338406      0.239562
Pb       7.51829      7.66686     12.63609         0.006790     -0.477166      0.411260
Pb       7.49209     11.35920      4.30889         0.088218      0.100451     -0.748645
Pb       7.52088     11.45275     16.97471         0.466285     -0.161182      0.319074
Pb       7.63116     11.45456      8.64200        -0.714713      0.412138     -0.678784
Pb       7.66656     11.38307     12.69654        -0.994210     -0.333177      0.135600
Pb      11.34090      4.01140      4.10161         0.219398     -0.915058      0.359273
Pb      11.29997      3.62766     16.94549         0.557617      0.874656      0.257529
Pb      11.48034     15.16336      4.16827        -0.261571     -0.285171     -0.113987
Pb      11.40174      0.02049     16.98596         0.423508     -0.689821     -0.414933
Pb      11.44628      3.78235      8.47375        -0.310983      0.356904     -0.130234
Pb      11.35550      0.02518      8.48265        -0.010261     -0.314500     -0.314740
Pb      11.28571      3.60069     12.74509         0.333831      1.275422      0.061009
Pb      11.39298      0.02653     12.63525        -0.066572     -0.510096      0.373965
Pb      11.45431      7.46743      4.12631        -0.015399      0.653986      0.035933
Pb      11.40904      7.60556     16.94016         0.005272     -0.296033      0.187669
Pb      11.32985      7.53126      8.67491        -0.050967     -0.109267     -0.808395
Pb      11.39873      7.67394     12.92618        -0.005039     -0.743906     -1.040019
Pb      11.36130     11.31302      4.20417         0.268384      0.427927     -0.293629
Pb      11.46436     11.41477     16.75155         0.075772      0.239686      0.613625
Pb      11.36458     11.35948      8.50988         0.013433      0.503823      0.181478
Pb      11.26716     11.16419     12.51096         0.564137      1.059843      0.637893
Ti       1.90196      1.95672      2.20431        -0.381384     -0.214685     -0.034076
Ti       1.96718      1.83387     15.01892        -0.689751      0.751720      0.610482
Ti       1.76843     13.41504      2.38737        -0.037012      0.003054     -1.115657
Ti       1.92130     13.25566     14.93125        -1.419719     -0.565759      0.504104
Ti      13.34291      1.89654      2.20780        -0.219458     -0.146751     -0.230687
Ti      13.35324      1.88662     15.01601        -0.079549     -0.246691      0.060850
Ti      13.19893     13.25132      2.12796         0.310973     -0.040067      0.670874
Ti      13.21567     13.30095     14.78063         0.185132     -0.330747      1.542750
Ti       1.93417      1.86122      6.64550        -0.650237      0.120752     -0.749183
Ti       1.78828     13.34135      6.51716        -0.034164     -0.553093      0.795086
Ti      13.28050      2.01455      6.38139         0.239456     -0.414560      0.732088
Ti      13.16488     13.29454      6.45940         0.594081     -0.028090      0.826783
Ti       1.84099      1.85585     10.74761         0.109686     -0.373445      1.209158
Ti       1.74589     13.27213     10.68681         0.786105      1.060697      1.148738
Ti      13.29037      1.97759     10.85842         0.520805     -0.400959     -0.626596
Ti      13.24252     13.38984     10.76213        -0.478558     -1.133717     -0.182608
Ti       1.99297      5.80109      2.19890        -1.911443     -0.851750      0.080077
Ti       1.94287      5.66461     14.80541        -0.671842      0.064901      1.166380
Ti      13.44084      5.63908      2.14466        -0.676467      0.386613      0.096080
Ti      13.23219      5.59932     14.92361         0.800815     -0.021895      0.578388
Ti       1.89412      5.66629      6.52739        -1.070805      0.762854     -0.185250
Ti      13.27954      5.71563      6.52216        -0.208653      0.313155      0.166657
Ti       1.85754      5.70259     10.66348        -0.756370     -0.186423      0.068198
Ti      13.23565      5.76685     10.70478        -0.720501     -0.450804      0.539364
Ti       1.93513      9.50646      2.29406        -0.426800      0.254139     -0.806272
Ti       1.92806      9.54786     15.00466        -0.115135     -1.586571      0.288145
Ti      13.37656      9.48857      2.16426        -0.625721      0.257317     -1.128998
Ti      13.23888      9.41001     14.94375         1.175299      1.170456     -0.451202
Ti       1.82037      9.49128      6.50966         0.286731     -0.006584     -0.002566
Ti      13.16376      9.52801      6.55382         0.023007     -0.113844      0.458768
Ti       1.78944      9.52163     10.68141         0.994898     -0.588046     -0.108314
Ti      13.26744      9.48867     10.67020        -0.925961     -0.293167      1.402073
Ti       5.74659      1.94727      2.28933        -0.653037      0.221854      0.901607
Ti       5.74029      1.95211     14.89833         0.131974     -1.065406      0.367142
Ti       5.57241     13.34387      2.32725         0.698067     -0.323830      1.607481
Ti       5.60408     13.25546     14.94815         0.581849     -0.339744     -0.624002
Ti       5.72853      1.79403      6.54494        -0.140758     -0.253161     -0.068770
Ti       5.61330     13.25740      6.46813         0.660183      0.006194      1.169962
Ti       5.76466      1.82523     10.77756        -1.137253      0.412366     -0.465401
Ti       5.60336     13.25360     10.83760         0.229055      0.024361      0.171654
Ti       5.67088      5.70971      2.21682         0.328143      0.162504      1.496165
Ti       5.72517      5.64965     14.88753        -0.229183      0.710889      0.690437
Ti       5.75298      5.66608      6.39987        -0.235130      0.024740     -0.125761
Ti       5.60676      5.67439     10.74129         0.667050     -0.117967     -0.841788
Ti       5.73076      9.48449      2.24876         0.321655     -0.312167      0.879550
Ti       5.69165      9.40323     15.06964        -0.722782      0.994653     -0.994662
Ti       5.67084      9.48968      6.35707        -0.992008      0.578240      1.022669
Ti       5.52950      9.43455     10.73966         1.252542      1.086398      0.102746
Ti       9.53159      1.85043      2.25958        -0.596389      0.359723      0.267788
Ti       9.48358      1.84966     15.01779         0.345318      0.523093      0.113753
Ti       9.39720     13.24760      2.17418         0.540622      0.040304      0.628822
Ti       9.43008     13.28216     14.91578         1.343236     -0.791167      0.650438
Ti       9.58020      1.92563      6.34277        -0.800742      0.424759      0.955918
Ti       9.43019     13.33394      6.42598        -0.201304      0.789048      0.352132
Ti       9.45769      1.90074     10.70813         0.659815     -0.174486      0.380143
Ti       9.40181     13.28044     10.81329         0.447575      0.218533     -0.680966
Ti       9.55055      5.68844      2.09337        -0.084133     -0.240364      1.118952
Ti       9.46719      5.71830     14.95471        -0.014826     -0.360498      0.298056
Ti       9.51004      5.81545      6.46319        -0.056907     -1.426530      0.143940
Ti       9.37464      5.71028     10.62726         1.006786     -1.004881      0.445411
Ti       9.62211      9.51963      2.13710        -1.300743      0.159778      0.256397
Ti       9.45384      9.43967     14.99477         0.463559      0.706911     -0.213832
Ti       9.37442      9.68566      6.42626         0.831227     -2.290179     -0.225872
Ti       9.36010      9.35663     10.65901         0.416141      0.614396      1.583325
O       1.87962      1.76584      0.45025         0.170893      0.149553     -0.788599
O       1.93371      1.71975     13.26219         0.242045      0.447208     -0.590289
O       1.84770     13.46992      0.59434         0.040846     -0.216208      0.008754
O       1.80084     13.26387     13.21006         0.400583      0.035142     -1.055967
O      13.36334      1.89768      0.42177        -0.167920     -0.187994     -0.148031
O      13.16277      1.98186     13.22581         0.191424     -0.098394     -0.335028
O      13.15328     13.21074      0.37241         0.354212      0.375815     -0.277681
O      13.16554     13.30136     13.05094         0.162136     -0.033275     -1.216637
O       1.84565      1.97228      4.82946         0.230991     -0.319589      0.049858
O       1.74893     13.28615      4.74608         0.181990      0.463834     -0.687572
O      13.27573      1.95028      4.62522         0.014380      0.115980     -0.274132
O      13.12509     13.20725      4.72998         0.071840      0.017091     -1.183864
O       1.72788      1.84810      9.01842         0.048379     -0.116782     -1.755305
O       1.82595     13.23592      8.92056         0.162663      0.178761     -0.660847
O      13.40804      1.91479      9.08790        -0.309605     -0.048653     -0.676967
O      13.13259     13.47223      8.97172         0.085050     -0.162855     -0.652448
O       1.88319      5.75398      0.42384        -0.007476     -0.056947     -0.504028
O       1.89344      5.69438     13.03426        -0.332824     -0.131566     -0.202756
O      13.52049      5.65178      0.36041        -0.415072      0.206435     -0.180313
O      13.29640      5.66233     13.16464        -0.160173     -0.122435     -0.543409
O       2.01717      5.69281      4.72553        -0.389372      0.207562     -0.502082
O      13.19134      5.69224      4.73773        -0.046047      0.308901     -0.467149
O       1.89272      5.70382      8.90078        -0.130565     -0.204646     -0.600777
O      13.30552      5.80580      8.94092        -0.200863      0.134291     -1.171080
O       1.84055      9.46173      0.50107         0.252822      0.249101     -0.138279
O       1.85847      9.48636     13.22212        -0.102567      0.378577     -1.131203
O      13.34936      9.53814      0.32897        -0.090274     -0.483549      0.430536
O      13.30009      9.48117     13.09098        -0.075868     -0.116585      0.242461
O       1.86598      9.48058      4.67320        -0.346447     -0.122548      0.087100
O      13.16361      9.48316      4.79206         0.410352      0.068981     -0.952953
O       1.89836      9.59543      8.89699        -0.036540      0.046123      0.095121
O      13.10911      9.42820      8.92485         0.486338     -0.116627     -0.735680
O       5.78920      2.11744      0.54184        -0.173077     -0.409650     -0.761307
O       5.69077      1.91979     13.10364        -0.068331      0.145873      0.141355
O       5.64242     13.25540      0.58699        -0.000590      0.134625     -1.639692
O       5.67571     13.15758     13.17384        -0.270477      0.301590      0.715988
O       5.62231      1.80079      4.80679         0.012683      0.021930     -0.941035
O       5.67405     13.34882      4.73003         0.024632     -0.204985     -1.389276
O       5.74941      1.81646      8.99853         0.173383      0.001818     -0.522021
O       5.70588     13.34794      9.07362         0.058566     -0.181583     -0.859431
O       5.64543      5.50563      0.49604         0.293097      0.258195     -1.871602
O       5.64597      5.63669     13.14840         0.056397      0.104428     -0.905569
O       5.66265      5.70264      4.63826        -0.119955      0.187265     -0.115316
O       5.58246      5.73187      8.95375         0.007931     -0.045405     -0.307904
O       5.67239      9.52185      0.47528        -0.197618     -0.209906     -1.371662
O       5.61728      9.49630     13.29583         0.169357     -0.085376     -0.181172
O       5.79715      9.55512      4.63476        -0.232943     -0.318464     -1.468853
O       5.42991      9.43272      9.00632         0.486991      0.256554     -1.265495
O       9.37388      1.95484      0.45199         0.217869     -0.174792     -0.631549
O       9.52394      1.87328     13.23784        -0.051922     -0.079081     -0.369224
O       9.37075     13.25117      0.40248         0.071737      0.114760     -0.716631
O       9.44632     13.29222     13.16464        -0.145030      0.185070     -1.141435
O       9.65768      1.91360      4.60489        -0.321884     -0.186708     -0.831461
O       9.53270     13.31145      4.66857        -0.339195     -0.045958     -0.500299
O       9.48844      2.09560      8.95045        -0.085368     -0.803298     -0.139208
O       9.27588     13.28012      9.02837         0.121443     -0.019293     -0.061626
O       9.53799      5.57947      0.36070        -0.442795      0.361865     -0.741947
O       9.45598      5.87247     13.20913        -0.002073     -0.387157     -0.644675
O       9.62658      5.70166      4.66669        -0.081402      0.338361     -0.771677
O       9.30222      5.72396      8.86700         0.185318     -0.119365     -0.557568
O       9.64126      9.51803      0.34159        -0.374653     -0.303378     -0.303876
O       9.43793      9.23578     13.20644         0.002501      0.440636     -0.265047
O       9.40203      9.52526      4.63531         0.173392      0.387487      0.376826
O       9.34243      9.42083      8.94985        -0.001142      0.256932     -1.802667
O       3.75908      1.93673      2.67574         0.371782     -0.122016     -0.245505
O       3.90224      1.88687     15.34903        -0.428275     -0.180383     -0.016580
O       3.72262     13.28194      2.69623         0.153012      0.350825      0.005643
O       3.74435     13.28751     15.41919         1.250542     -0.354469     -0.020778
O      15.15156      1.97761      2.61629         0.853446     -0.144168      0.273812
O       0.03684      1.76078     15.23379        -0.052468      0.036771      0.129672
O      15.07771     13.26947      2.59926         0.366478      0.125085      0.166816
O      15.14765     13.30851     15.20858        -0.000689     -0.122478      0.346845
O       3.78343      1.69897      6.95605        -0.346942      0.391273      0.042370
O       3.76912     13.45684      6.87044        -0.999888     -0.152766      0.071950
O      15.15764      2.02730      6.84165        -0.474205     -0.132019      0.068630
O      15.05021     13.19181      6.82523         0.628752      0.103965      0.367251
O       3.73655      1.73227     11.00555         0.257409      0.395352      0.563203
O       3.78617     13.36883     11.04875        -1.523716      0.170602      0.268908
O      15.14259      1.90559     11.29560         0.126923      0.040709     -0.037548
O      15.09935     13.26083     10.86947         0.158904     -0.163780      0.561297
O       3.75823      5.68741      2.44168         1.322312     -0.034968      0.691670
O       3.76194      5.56649     15.23018         0.956640      0.449432      0.330066
O       0.02496      5.77890      2.57819         0.648457     -0.204798      0.411533
O       0.02238      5.64584     15.25460         0.372599     -0.084419     -0.097471
O       3.74654      5.68095      6.76662         1.289447      0.266837      0.347172
O      15.13264      5.75504      6.73497         0.491561     -0.368804      0.358871
O       3.65862      5.66145     11.07208         1.608495     -0.145323      0.279812
O      15.12500      5.81467     10.98576         0.953177     -0.531142      0.643285
O       3.76613      9.54606      2.62948         0.367749     -0.016309      0.160626
O       3.76132      9.57588     15.37645         0.396313     -0.451116      0.427473
O       0.01218      9.53309      2.58155        -0.158577     -0.117987      0.512030
O      15.17868      9.55904     15.24524         0.158789      0.035686      0.017347
O       3.73292      9.40972      6.65409         0.020197      0.077985      0.416088
O      15.18287      9.56417      6.93620        -0.791486      0.134283     -0.224985
O       3.72102      9.49225     11.09908        -1.390326      0.284079      0.447199
O      15.16035      9.60841     11.02782        -0.292318     -0.391878     -0.023090
O       7.58045      1.93539      2.65233         0.081950      0.088407      0.246651
O       7.63625      1.84019     15.29183        -0.779831      0.091890      0.131766
O       7.52383     13.31889      2.56562        -0.176596     -0.133909      0.444588
O       7.57992     13.23063     15.31688        -0.708417      0.120503      0.152201
O       7.63369      1.92783      6.72725        -0.131433      0.100700      0.437891
O       7.57123     13.28181      6.79120        -0.474434     -0.348108      0.269468
O       7.60655      1.93576     11.12463        -0.044126      0.036753      0.075224
O       7.49070     13.29959     11.21124         1.207998     -0.326111      0.275327
O       7.62056      5.70249      2.59310         0.238231     -0.213127     -0.536867
O       7.56838      5.76418     15.31486        -0.159530      0.059912      0.101405
O       7.61400      5.65866      6.63773        -1.284482     -0.152551      0.436098
O       7.51850      5.64453     10.95386        -0.925929     -0.237936      0.812692
O       7.61245      9.32553      2.42463         0.723407      0.442589      0.110274
O       7.61830      9.41565     15.34728        -0.399891      0.043401      0.363923
O       7.48670      9.63284      6.76008         1.206935     -0.250195      0.666070
O       7.50124      9.50674     11.07317        -0.183161     -0.251558      0.147065
O      11.37422      1.95339      2.44715         0.407904     -0.279216      0.056258
O      11.41380      1.92210     15.39086        -0.763744     -0.212664      0.039077
O      11.31419     13.28094      2.53876         0.299992      0.136935      0.075020
O      11.34051     13.27674     15.32526         0.148880      0.293208     -0.145176
O      11.38313      1.82870      6.85676         0.905302      0.381258      0.175082
O      11.30725     13.34092      6.80748        -0.061025      0.279281      0.796428
O      11.38550      1.88935     11.09298        -0.856084     -0.036575      0.055869
O      11.29338     13.29553     10.96749        -0.458206      0.246043      0.670104
O      11.45947      5.71386      2.35319        -0.135882     -0.067919      0.604659
O      11.42801      5.66968     15.37181        -0.294315      0.231844     -0.146406
O      11.29719      5.70686      6.95341         1.577410      0.580809      0.208747
O      11.30605      5.76279     10.86058        -0.321062     -0.105532      0.272870
O      11.44414      9.44875      2.52272        -0.115369      0.182735      0.223891
O      11.42888      9.29680     15.18524        -0.971203      0.360094      0.303773
O      11.25921      9.53742      6.87046        -0.034604     -0.251833     -0.038987
O      11.30455      9.36207     11.03668        -0.371335     -0.224549      0.058457
O       1.87481      3.81414      2.57369        -0.074940      0.578240      0.141577
O       1.96963      3.73794     15.33255        -0.524633     -0.061471     -0.263498
O       1.76011      0.13095      2.69775         0.261729     -1.022563      0.499984
O       1.93691     15.09308     15.33537         0.246323      1.203622      0.320795
O      13.35486      3.82679      2.60420        -0.233599     -0.017291     -0.194389
O      13.38819      3.77237     15.35838        -0.263962     -0.439355     -0.046599
O      13.32053     15.17592      2.58786        -0.465216      0.292329     -0.059860
O      13.12227     15.16237     15.24593         0.512942      0.415597      0.138471
O       1.89799      3.80018      6.84263         0.145636     -0.531422      0.586923
O       1.60150     15.19579      6.85002         0.523097      0.217288     -0.031663
O      13.22740      3.87478      6.90280        -0.209091     -1.048867     -0.127222
O      13.30945      0.06719      6.66316        -0.088641     -0.214450      0.526299
O       1.75607      3.74103     10.99767         0.272799      0.491790      0.321169
O       1.73069     15.19048     11.18169         0.246751     -0.704070     -0.212659
O      13.23658      3.86812     11.01204         0.194172     -0.519004      0.674194
O      13.28633      0.03090     11.07859        -0.303901      0.096194      0.568178
O       1.98147      7.61659      2.54637        -0.302247      0.625309      0.617412
O       1.81234      7.57515     15.12147         0.717919     -0.260944      0.599681
O      13.36651      7.60073      2.55190        -0.243237      0.017238      0.124780
O      13.38232      7.56703     15.12994         0.026143     -0.814165      0.651541
O       1.80046      7.56793      6.86384         0.101600      0.706982     -0.139917
O      13.34245      7.65195      6.81601        -0.592292     -0.319907      0.288550
O       1.90967      7.61227     10.97768        -0.401844      0.665747      0.382972
O      13.24469      7.58181     11.14686         0.203025      1.214017     -0.022389
O       1.82231     11.52168      2.73212         0.333400     -1.445676     -0.383600
O       1.92854     11.35667     15.37457        -0.287996      1.279071      0.028278
O      13.23189     11.35918      2.50393         0.031457     -0.061159      0.429065
O      13.25347     11.34814     15.08830        -0.173536      0.460878      0.428460
O       1.90351     11.46115      6.76294         0.273077     -1.048693      0.451798
O      13.12099     11.40295      6.98051         0.333545      0.004590     -0.043035
O       1.85956     11.45745     11.04476         0.349698     -1.301332      0.192417
O      13.06150     11.35391     10.90563         0.447836      0.050892      0.281802
O       5.65261      3.89323      2.76149         0.203583     -1.589017     -0.191749
O       5.79822      3.76844     15.23079        -0.203097      0.370654      0.373182
O       5.68608      0.04276      2.68353        -0.350052     -0.206211     -0.457027
O       5.66316     15.14595     15.20554         0.325400      0.279514      0.329499
O       5.60241      3.76568      6.76026         0.140208      0.027319      0.285763
O       5.75874     15.13985      6.96431         0.128708      0.362323      0.111889
O       5.55666      3.74798     10.96767         0.137433      0.301245      0.483371
O       5.73833      0.02747     11.22598        -0.036006     -0.760783      0.140774
O       5.72454      7.57562      2.48608        -0.690662     -0.185737      0.409114
O       5.50271      7.59527     15.37306         0.666442     -1.187906      0.073630
O       5.68008      7.60238      6.68429         0.018192     -0.552679      0.481487
O       5.56304      7.61903     11.05807         0.151269     -1.595545      0.539193
O       5.72562     11.29133      2.58488        -0.105459      2.138253      0.204294
O       5.69749     11.36888     15.47585        -0.120513      0.425066     -0.098090
O       5.55475     11.36191      6.80286        -0.112235      0.631852      0.265914
O       5.60446     11.35933     11.12851         0.185655      0.013687     -0.037778
O       9.44601      3.81085      2.56858         0.165003      0.135417     -0.121476
O       9.53683      3.83558     15.19775        -0.357262     -1.060631      0.290981
O       9.40592     15.14958      2.46276         0.222765      0.972938      0.276909
O       9.48918     15.13827     15.35547         0.019101      0.897486      0.135711
O       9.54438      3.82095      6.78980        -0.180158     -0.806058      0.070273
O       9.40928      0.02823      6.86744         0.305077      0.134853      0.048399
O       9.43174      3.74686     11.17898         0.273890      0.692333     -0.061575
O       9.38561      0.01137     11.08803         0.143931      0.079535      0.003619
O       9.56346      7.60068      2.40839        -0.150081     -0.537221      0.134540
O       9.54933      7.55724     15.40512        -0.103077      0.454265      0.570558
O       9.37074      7.60795      6.76966        -0.087219      1.624728      0.222390
O       9.29484      7.51335     10.97841         0.100354      0.947762      0.210651
O       9.41026     11.39703      2.47918         0.144187     -0.977328      0.450925
O       9.63430     11.37217     15.14256        -0.778657     -0.934942      0.241786
O       9.45221     11.47495      6.85962        -0.063202     -0.491191      0.223307
O       9.37328     11.29918     11.04468         0.198862      0.574392      0.082602
