  # total energy = -7877.64848382 
CRSYTAL
PRIMVEC
    15.2000000000000000    0.0000000000000000    0.0000000000000000
     0.0000000000000000   15.2000000000000000    0.0000000000000000
     0.0000000000000000    0.0000000000000000    17.000000000000000
PRESSURE
7.66932 7.75077 1.79033 0.227574 -0.101155 0.127443
PRIMCOORD
320 1
Pb       3.69519      3.88836      4.24740         0.398343     -0.171130      0.348200
Pb       3.89335      3.93568      0.03138        -0.256049     -0.429266      0.132882
Pb       3.68768      0.13484      4.37250         0.165137     -0.591205     -0.333008
Pb       3.95631     15.16542      0.03819        -0.564218     -0.001307     -0.144445
Pb      15.19843      4.11268      4.30933        -0.075159     -1.528473      0.103928
Pb      15.13506      3.70760      0.01832         0.374957     -0.193978     -0.255631
Pb       0.08253      0.18197      4.21160        -0.422967     -0.402375      0.790355
Pb       0.00599     15.13003     16.93836         0.115368      0.411553     -0.088174
Pb       4.06498      3.57101      8.46642        -0.816928      0.962281      0.380503
Pb       3.80593     15.07868      8.60986        -0.275212      0.398571     -0.416467
Pb      15.18688      3.76566      8.45214         0.701622      0.315388      0.495835
Pb       0.00092     15.09792      8.68719        -0.075801     -0.238224     -0.470234
Pb       3.76105      3.81761     12.76633        -0.155678     -0.472869     -0.248863
Pb       3.72472     15.11620     12.80599         0.224499      0.858658     -0.155849
Pb       0.06646      3.63428     12.73845        -0.238361      0.596214      0.110193
Pb       0.01372     15.17836     12.78053         0.024658      0.227335     -0.026914
Pb       3.75486      7.51411      4.26346         0.299883      0.275170     -0.114044
Pb       3.90638      7.63255      0.22292        -0.549962     -0.408771     -0.845185
Pb      15.16128      7.57089      4.10730        -0.667721      1.141778      0.906971
Pb       0.06632      7.55743     16.87878        -0.160700      0.823703      0.828436
Pb       3.81357      7.59006      8.39391        -0.195578     -0.246315      0.554491
Pb      15.05208      7.48993      8.42726         0.352467      0.405539      0.462511
Pb       3.67808      7.51190     12.68246         0.420928      0.153816      0.647266
Pb      15.10547      7.50991     12.65330         0.170032     -0.096983      0.115418
Pb       3.57015     11.49029      4.27369         0.416513     -0.141067      0.191524
Pb       3.94164     11.36406      0.19951        -0.357441      0.069180     -0.882668
Pb      15.02067     11.49898      4.24999         0.199577     -0.466362      0.271107
Pb       0.05470     11.45075     16.99919        -0.183804     -0.689990     -0.029252
Pb       3.86429     11.41013      8.48349        -0.612085     -0.321261     -0.235407
Pb      15.03441     11.26147      8.57862         0.749556      0.609583     -0.226696
Pb       3.59306     11.21023     12.90362         0.612647      0.300241     -0.471604
Pb      15.11601     11.26470     12.67499         0.251182      0.168211      0.054234
Pb       7.46286      3.64767      4.11499         0.454410      0.600868      0.272235
Pb       7.60087      3.83200     16.99846         0.031880     -0.600667     -0.286085
Pb       7.52173     15.16074      4.30714         0.097342     -0.100669     -0.451175
Pb       7.60548     15.08367      0.05522         0.247182      0.407799     -0.140120
Pb       7.78594      3.78945      8.27409        -0.879416     -0.000263      1.005178
Pb       7.57425     15.12209      8.39803        -0.051097      0.246771     -0.075859
Pb       7.46039      3.77574     12.71215         0.983840      0.162867      0.329198
Pb       7.64511      0.18682     12.67828        -0.234305     -1.049450      0.268178
Pb       7.69660      7.47235      4.40955        -0.403325      0.140882     -0.968668
Pb       7.47079      7.65882     16.92443         0.553200     -0.224412      0.445151
Pb       7.63769      7.64350      8.41941        -0.228381     -0.476670      0.868647
Pb       7.57558      7.61595     12.81140         0.067929     -0.068490     -0.419629
Pb       7.52361     11.19754      4.17750        -0.215459      0.715596      0.400103
Pb       7.76673     11.45490     16.97109        -0.598813     -0.052142      0.020331
Pb       7.48661     11.47166      8.37045         0.331942     -0.174325      0.480556
Pb       7.50376     11.27733     12.69704        -0.025850      0.578002     -0.127988
Pb      11.39519      3.80599      4.10892        -0.137842      0.102465      0.340980
Pb      11.43643      3.77343      0.03372        -0.308878     -0.415386     -0.247896
Pb      11.45152     15.16124      4.27056        -0.684324     -0.252520     -0.169037
Pb      11.42120     15.00992     16.93384        -0.398424      0.349599      0.278072
Pb      11.42850      3.71253      8.44378         0.207531      0.414756      0.575354
Pb      11.30840      0.00462      8.45200        -0.060901     -0.672333      0.147412
Pb      11.34713      3.77592     12.78715         0.036143      0.291278     -0.584448
Pb      11.40396      0.06619     12.75929        -0.553118     -0.206482     -0.349350
Pb      11.49911      7.59696      4.12847         0.010469      0.182265      0.348694
Pb      11.26052      7.48780     16.89942         0.567006      0.977819      0.504483
Pb      11.34342      7.56263      8.33436         0.723707      0.250635      1.044490
Pb      11.27460      7.49942     12.58580         0.543641      0.291053      0.755587
Pb      11.43287     11.29579      4.23502        -0.491078      0.522907      0.432395
Pb      11.44982     11.46790     16.89201        -0.606491     -0.337848      0.303213
Pb      11.40891     11.44508      8.63714        -0.410192      0.093536     -0.447956
Pb      11.35319     11.29881     12.78104        -0.346476      0.410271     -0.979957
Ti       1.94692      1.96669      2.33740        -0.525550      0.231027     -1.725005
Ti       1.95879      1.89178     15.15831        -0.518242     -0.535298     -0.973073
Ti       1.86380     13.36724      2.18814         0.391940     -0.479131     -0.229435
Ti       1.89412     13.24391     14.92625         0.220109      0.700293      1.665583
Ti      13.32210      1.86416      2.27742        -0.656676      1.291341      0.205362
Ti      13.24370      1.91898     14.98045         0.762009     -0.453064     -0.728789
Ti      13.32490     13.37153      2.24078        -2.144044     -0.613919      0.158050
Ti      13.28491     13.24312     14.90190        -0.221862      0.600644      0.118329
Ti       1.88401      1.88663      6.59925        -0.449130      0.296021     -0.531782
Ti       1.79938     13.25832      6.60486        -0.263911      0.027238      0.311352
Ti      13.26950      1.83920      6.53266         0.584117      0.860631     -0.651608
Ti      13.26938     13.40406      6.46828        -0.574558     -1.084052     -0.647697
Ti       1.86783      1.94582     10.63851         0.632509     -0.508134     -0.350870
Ti       1.90464     13.24410     10.79999        -1.178609     -0.104758     -0.430566
Ti      13.26561      1.87288     10.61614        -0.554634      0.675707     -0.394228
Ti      13.24488     13.39882     10.82914        -0.879849     -1.292564     -0.166382
Ti       1.87217      5.74627      2.24841         1.045793     -0.376656     -1.539267
Ti       1.90840      5.65517     14.97364         0.505907      0.245492      0.302748
Ti      13.31482      5.73681      2.10535        -0.760181      0.157794      0.956795
Ti      13.35748      5.76292     14.98580        -0.239260     -0.913971     -1.139448
Ti       1.95722      5.73917      6.52311        -0.039067     -1.060303     -0.132130
Ti      13.31182      5.65544      6.49011         0.188479      0.566032      0.215377
Ti       1.99749      5.73278     10.60471        -1.550768     -1.076230     -0.350272
Ti      13.36178      5.62929     10.69130        -0.075496      0.601464     -0.277647
Ti       1.78290      9.54995      2.39983         0.024598      0.428882     -0.986292
Ti       1.90904      9.45113     15.05453        -1.142623      0.109769     -0.551436
Ti      13.19981      9.60262      2.12931         0.942583     -0.700730     -0.309727
Ti      13.24236      9.48169     14.95610         0.260869     -0.022213      0.671236
Ti       1.77450      9.45564      6.46361         0.278960      1.175281      0.993522
Ti      13.20674      9.61296      6.53792         0.098674     -1.212980     -1.392854
Ti       1.90773      9.44418     10.65808        -0.942486      0.015362     -0.116635
Ti      13.29974      9.49965     10.73330        -0.820077     -0.681041     -0.506225
Ti       5.70168      1.82805      2.28336        -0.332273      0.941804     -0.198111
Ti       5.71524      1.87867     15.04124         1.070522     -0.063954     -1.034661
Ti       5.66540     13.27946      2.29762        -0.161468      0.688020      0.254223
Ti       5.65099     13.31214     14.94011         0.090588     -0.723649      0.350189
Ti       5.64287      1.84521      6.41183         1.048039     -0.238766     -0.797281
Ti       5.54300     13.28878      6.37286         1.287937     -0.173420     -0.411846
Ti       5.71253      1.94794     10.74978        -0.455922     -1.607347     -0.347351
Ti       5.62055     13.37172     10.71470         1.334726     -0.918944      0.293565
Ti       5.65744      5.68225      2.21736         0.392021      0.066116     -0.259594
Ti       5.73351      5.66677     14.84874        -0.771264      0.295895      0.603006
Ti       5.75517      5.64862      6.49031        -0.499468     -0.339134     -1.018465
Ti       5.77602      5.71977     10.75066        -0.508686      0.172516     -1.035969
Ti       5.63056      9.46117      2.30953        -0.062122     -0.098712      0.611552
Ti       5.64002      9.47381     14.98595        -0.146557      1.487916     -0.810749
Ti       5.59879      9.39214      6.48903        -0.144492      1.260928     -1.187744
Ti       5.60994      9.48547     10.69826         0.632322      0.034419      0.679101
Ti       9.55263      1.88307      2.21827        -0.334090     -0.928239     -0.920348
Ti       9.49681      1.91101     14.99890        -0.653081     -0.401264     -0.130976
Ti       9.42403     13.22475      2.30563         0.934241      0.670578     -0.287003
Ti       9.37138     13.40769     14.78886         1.032139     -1.432877     -0.494056
Ti       9.47811      1.89526      6.37361         0.054379     -1.099789     -0.771714
Ti       9.37112     13.25714      6.34394         1.346663      0.313787      0.890643
Ti       9.47348      1.89973     10.64667         0.424456      0.026699      1.452166
Ti       9.37644     13.24351     10.70837         0.727184      0.280279      1.299796
Ti       9.46807      5.73612      2.19946        -0.472337     -0.764513      0.481129
Ti       9.46604      5.70315     15.02676         0.614440     -0.356932     -2.333301
Ti       9.57343      5.68119      6.35742         0.046264      0.281422      0.116251
Ti       9.52115      5.63939     10.67507         0.368084     -0.046681      0.981730
Ti       9.41803      9.41037      2.26687         0.525762      0.740096     -0.421463
Ti       9.40666      9.51269     14.96923         0.629676      0.231098      0.113854
Ti       9.40969      9.50290      6.52396         1.398083      0.366399      1.052314
Ti       9.47740      9.45390     10.65946        -0.313980      1.060195     -0.225651
O       1.84986      1.97942      0.52191         0.253411     -0.302551      0.252444
O       1.94636      1.91558     13.34272        -0.105585      0.033104      0.084846
O       1.84820     13.31775      0.37269         0.195475      0.097867      1.702079
O       1.82001     13.24527     13.13882         0.204280      0.036755      0.050789
O      13.25708      1.99630      0.49219        -0.186889     -0.036800     -0.326676
O      13.27991      1.77042     13.15799         0.095342      0.802206      0.844968
O      13.24347     13.30947      0.45665        -0.062715      0.037274     -0.145639
O      13.21282     13.38476     13.12274         0.427625     -0.388229      0.138396
O       2.00015      1.89669      4.73336        -0.641971     -0.364420      0.359615
O       1.82411     13.45365      4.84462        -0.197690     -0.458868     -0.424894
O      13.19111      1.82528      4.69654         0.074726      0.367758      0.856623
O      13.29064     13.43363      4.63355         0.156301     -0.236890      0.892510
O       1.91213      1.91578      8.81985         0.071666     -0.231013      1.239161
O       1.89408     13.24687      8.98129         0.425971      0.144610      1.004687
O      13.29927      1.74673      8.78627         0.058743      0.265605      1.438547
O      13.21153     13.38330      9.05808         0.054368     -0.080727     -1.098939
O       1.89747      5.84334      0.42850         0.195489     -0.601221      0.885830
O       1.99668      5.67079     13.18723        -0.397609     -0.337362      0.266748
O      13.39279      5.73556      0.35600        -0.234169     -0.282588     -0.003697
O      13.57573      5.47034     13.19938        -0.873874      0.967558      0.485237
O       2.01182      5.67101      4.65147        -0.824885      0.310308      0.821472
O      13.36766      5.69142      4.69855        -0.315015     -0.052666      0.175347
O       1.83524      5.78061      8.81680         0.583291     -0.303049      0.633242
O      13.45164      5.72947      8.87686        -0.630776     -0.251393      0.234344
O       1.74707      9.75209      0.63050         0.727604     -0.726113     -0.376859
O       1.81977      9.53190     13.20227         0.189258     -0.143321      1.716373
O      13.14458      9.67428      0.35957         0.287558     -0.311602      1.023922
O      13.31572      9.42418     13.16230         0.015219      0.631747     -0.172234
O       1.73490      9.52316      4.69131         0.377565     -0.132245     -0.243524
O      13.29834      9.57530      4.67768        -0.422707     -0.013048      1.412937
O       1.79811      9.48438      8.89423         0.586103     -0.018276      0.561124
O      13.20961      9.52447      8.90472         0.306275      0.131064      0.507677
O       5.69119      1.88815      0.50010         0.105910     -0.060733     -0.484955
O       5.77872      1.91790     13.17384        -0.277612      0.048399      1.048749
O       5.67691     13.44010      0.46471        -0.122338     -0.361778      0.557195
O       5.61184     13.27685     13.19501         0.036820     -0.036698     -0.299120
O       5.74593      1.88536      4.58277        -0.442527      0.154517      1.257490
O       5.64994     13.37348      4.58413        -0.245762     -0.439027      0.843780
O       5.70993      1.81172      8.94653        -0.120157      0.252239     -0.174271
O       5.62892     13.30234      8.85428        -0.076695      0.377130      1.035468
O       5.52956      5.72175      0.36547         0.711151      0.142461      0.757816
O       5.66231      5.62032     13.03585         0.136812     -0.077444      1.077813
O       5.72207      5.61058      4.64066         0.138563      0.553385      1.446963
O       5.80128      5.61674      8.91749        -0.488378      0.294183      0.717070
O       5.63256      9.43287      0.51835         0.010785      0.106532     -0.083437
O       5.68889      9.60417     13.18517        -0.429134     -0.157561      0.668152
O       5.49762      9.37085      4.67815         0.724420      0.091324      0.712552
O       5.67248      9.26746      8.90307        -0.285010      0.734708      0.716369
O       9.71485      1.92180      0.36206        -0.631223      0.168483      1.187825
O       9.44613      1.74731     13.17666         0.138803      0.752575      0.749075
O       9.42855     13.09444      0.47903        -0.023643      0.708995      0.292857
O       9.37675     13.40931     12.99103         0.364451     -0.289528      1.542333
O       9.57340      1.86715      4.56977        -0.317009     -0.185217      1.043440
O       9.41060     13.37603      4.58149        -0.168809     -0.340972      0.470020
O       9.42935      2.08569      8.90556         0.210317     -0.416272     -0.622087
O       9.37161     13.15503      8.93770         0.027268      0.401479     -0.596349
O       9.52728      5.78413      0.43420        -0.421048     -0.680773     -0.865717
O       9.49980      5.79737     13.15595        -0.051986     -0.166339      1.440119
O       9.62841      5.89824      4.56546        -0.663405     -0.524216      1.170229
O       9.61499      5.56016      8.90774        -0.360444     -0.098132      0.159084
O       9.44892      9.46911      0.50157        -0.299884      0.129908     -0.231795
O       9.40240      9.43297     13.18381         0.267089     -0.013861      0.515711
O       9.55309      9.41346      4.79662        -0.381773     -0.218976     -1.437157
O       9.43292      9.64539      8.85782        -0.040158     -0.574903      1.012282
O       3.77972      1.93163      2.70746        -0.178029     -0.242547     -0.334647
O       3.91008      1.93054     15.42526        -1.490155      0.254821     -0.002626
O       3.75098     13.25338      2.68794        -0.805184      0.146093     -0.686339
O       3.77478     13.42967     15.38620        -0.326382     -0.579601     -0.478708
O      15.13958      1.95317      2.55845         0.761431     -0.231699      0.472295
O      15.18836      1.86955     15.36131        -0.413201      0.273385      0.223150
O      15.11493     13.43713      2.51144         1.011644     -0.159841      0.270932
O      15.15318     13.40449     15.34359         0.146272     -0.664104     -0.491580
O       3.80232      1.84946      6.87275         0.828446     -0.313213     -0.117823
O       3.77659     13.22145      6.82950        -0.339231      0.368122      0.227742
O       0.03371      1.97162      6.82414        -0.328038     -0.826556     -0.263167
O      15.11758     13.26133      7.02507        -0.031231     -0.045184     -0.316319
O       3.77442      1.83468     11.09907        -0.474372      0.450924     -0.322806
O       3.76775     13.35219     11.20759        -0.030764     -0.241516     -0.632890
O      15.08905      1.96223     11.02724         1.545654     -0.178241     -0.025667
O      15.14833     13.30689     11.03214         1.029823     -0.141870      0.412350
O       3.76782      5.66320      2.62102        -0.424503      0.260111     -0.147628
O       3.87319      5.59455     15.37207        -0.380611      0.357295     -0.796328
O       0.02799      5.72147      2.67831        -1.149105     -0.086540     -0.785851
O       0.03528      5.82281     15.33467        -0.068590     -0.480191     -0.056318
O       3.83036      5.64999      6.68903         0.789970      0.582614      0.575561
O       0.05259      5.71704      6.77825        -0.700013     -0.400680     -0.328337
O       3.78991      5.61810     11.13583         0.588480      0.056234     -0.599922
O       0.02174      5.74347     11.01612         0.311935     -0.138981      0.134623
O       3.71096      9.65115      2.61283         0.299983     -0.303739     -0.021723
O       3.76105      9.46253     15.50290         0.009849      0.433526     -0.283920
O      15.12071      9.54779      2.57879        -0.815227      0.114820      0.270834
O      15.14939      9.50471     15.48311         1.170935      0.165893     -0.662180
O       3.73798      9.45176      6.84473         0.084987     -0.244643      0.054687
O      15.12064      9.56235      6.82281        -0.121593     -0.128866      0.220194
O       3.69289      9.49776     11.27359         1.483001     -0.306122     -0.954646
O       0.01880      9.42675     11.00021        -0.580036      0.201898      0.329941
O       7.55356      1.82468      2.68499         1.075731      0.355169     -0.686958
O       7.63211      1.80771     15.53869        -0.193970      0.161804     -0.380474
O       7.47575     13.29936      2.65987         0.875016      0.447065     -0.118734
O       7.59779     13.35754     15.33905        -0.733963      0.133940      0.011145
O       7.59133      1.80854      6.78825         0.229321      0.628699     -0.246178
O       7.52948     13.28133      6.79337        -0.024023      0.180636     -0.171306
O       7.62652      1.88497     11.11438        -0.505570      0.406106     -0.449645
O       7.52332     13.16996     11.12090        -0.698777      0.678715     -0.647474
O       7.51396      5.81978      2.50361         0.655558     -0.167347      0.248519
O       7.60273      5.73648     15.22080        -0.945268     -0.032223      0.478697
O       7.68358      5.75692      6.86159        -0.259163     -0.232855     -0.850645
O       7.59914      5.71106     11.07693         0.273713      0.188730     -0.125738
O       7.54685      9.30349      2.69838        -0.651766      0.070032      0.114600
O       7.51505      9.53782     15.33700         0.673687     -0.330646      0.200241
O       7.55616      9.36177      6.82822        -0.791986      0.339903     -0.377456
O       7.56234      9.38708     11.21321        -0.095936      0.360139     -0.990586
O      11.34756      2.04484      2.60504         0.889432     -0.296177     -0.157705
O      11.35913      2.04351     15.20498         0.712892     -0.243771      0.311857
O      11.31406     13.23897      2.58754         0.087463     -0.206668      0.087120
O      11.37959     13.23312     15.27423        -0.145540      0.056123     -0.239592
O      11.38284      1.85175      7.01325        -0.164636      0.343513     -1.233144
O      11.36146     13.42041      6.74289        -0.393777     -0.247358      0.197249
O      11.36392      1.96293     11.04925         0.197550     -0.306549     -0.069713
O      11.33014     13.25517     11.07251         0.320209      0.220410      0.163428
O      11.32353      5.74906      2.45752         2.095908     -0.228607      0.052781
O      11.40771      5.84329     15.23062         0.206182     -0.702331      0.157221
O      11.40960      5.60004      6.85359        -0.065303     -0.034508     -0.407190
O      11.46672      5.68260     11.17697        -1.065932     -0.289623     -0.411306
O      11.38520      9.51416      2.69528        -1.002575      0.039975     -0.494914
O      11.31371      9.49089     15.40973        -0.227700      0.130430     -0.864849
O      11.36347      9.55910      6.95747        -0.505852     -0.359915     -0.347934
O      11.36647      9.50213     11.09504        -0.051246      0.307856     -0.079483
O       1.93434      3.86015      2.57369        -0.554994     -0.588479      0.246413
O       1.80656      3.80595     15.34894         0.291316     -0.006796      0.276551
O       1.82453      0.00424      2.69471         0.593371      0.366907     -0.499346
O       1.83287     15.16183     15.36061         0.413937      0.579564     -0.074135
O      13.28029      3.89390      2.69670         0.163676     -0.081970     -0.821354
O      13.30802      3.85245     15.34655         0.066593     -0.418371      0.234395
O      13.04931      0.04793      2.58448         0.741827     -0.306179     -0.481583
O      13.22850      0.00159     15.33229        -0.210689      0.050410      0.099792
O       2.01272      3.79866      6.78538        -0.408453      0.077510      0.187892
O       1.98835     15.09899      7.00781        -0.499569      1.355277     -0.142582
O      13.41364      3.73387      7.05120        -1.121866      0.662325     -1.469259
O      13.35791      0.00296      6.82568        -0.027425      0.314733      0.243084
O       1.81665      3.79765     10.97321         0.416362     -0.228968      0.357119
O       1.80442      0.02280     11.14022         0.133810     -0.045705     -0.362949
O      13.19314      3.81547     10.91803         0.493164     -1.159629      0.173155
O      13.36067      0.05089     11.05369        -0.506198      0.128145      0.303227
O       1.82168      7.59313      2.65447         0.626055      0.899342     -0.167809
O       1.93092      7.57207     15.35566         0.133778      0.730575     -0.114524
O      13.30275      7.66527      2.47868         0.012300     -0.943829      0.102529
O      13.34617      7.68770     15.33043        -0.258385     -1.532044      0.013392
O       1.84382      7.62091      6.99392         0.329291     -0.172953     -1.256400
O      13.20334      7.55005      6.78723         0.196815      0.185158     -0.006744
O       1.92870      7.52099     11.13703         0.036914      0.967738     -0.405461
O      13.21894      7.60683     11.07499         0.527699     -0.173902      0.021473
O       1.71395     11.50341      2.78933         0.285963      0.449495     -0.405491
O       1.86834     11.42211     15.47311         0.319163     -0.246623     -0.951528
O      13.14572     11.43863      2.71840         1.158600      0.493736     -0.808308
O      13.33651     11.35234     15.36764        -0.233816      1.409907     -0.858908
O       1.89498     11.38096      6.97875        -0.027502     -0.574188     -0.588133
O      13.12644     11.43778      6.82883         0.689152      0.686798      0.117432
O       1.89155     11.30759     11.16104        -0.182448      1.142832     -0.338416
O      13.30799     11.40408     11.07706        -0.081525     -0.615002      0.237513
O       5.65694      3.82788      2.52210         0.294867     -0.580422      0.123863
O       5.86443      3.80747     15.30504        -0.250767      0.102661      0.088182
O       5.62921      0.04193      2.62497        -0.243430     -1.293830     -0.106339
O       5.66610      0.01260     15.31178         0.256123     -0.135119      0.282427
O       5.74229      3.70984      6.80211         0.112979      0.968572     -0.040736
O       5.78633     15.19029      6.67688        -0.738434     -0.497953      0.429350
O       5.72527      3.74233     11.04298        -0.219123      1.459624      0.114247
O       5.70178      0.03269     11.07164        -0.063119     -0.959425     -0.051890
O       5.47033      7.53640      2.54912        -0.041593      1.297868      0.076665
O       5.76931      7.64977     15.25996        -0.628019     -1.511561     -0.027945
O       5.67925      7.53311      6.91615         0.067245     -0.374400     -0.639024
O       5.63458      7.60643     11.27154        -0.166960     -0.443574     -0.952047
O       5.74356     11.39772      2.58811        -0.320239     -0.832647     -0.144342
O       5.64017     11.42664     15.41695        -0.180162     -0.077264     -0.025521
O       5.60810     11.37259      6.81661         0.453973     -0.577729     -0.223744
O       5.67057     11.36742     10.91667        -0.357250     -0.285070      0.077728
O       9.45719      3.80546      2.58682        -0.538856      0.374550     -0.247766
O       9.38864      3.78516     15.31029         0.304001      0.702674      0.153823
O       9.50652     15.13942      2.41549        -0.284626      1.045289      0.212761
O       9.56403     15.16982     15.27144         0.118694      0.457799      0.381661
O       9.49212      3.77106      6.58945        -0.016339      0.627918      0.342744
O       9.47964      0.04457      6.87033        -0.294176     -0.963401     -0.236567
O       9.44240      3.83131     11.25353         0.273455     -0.494375     -0.698220
O       9.49796      0.02004     11.05521        -0.231819      0.059238     -0.819271
O       9.50485      7.58109      2.57736         0.018738      0.362647      0.337853
O       9.40165      7.52688     15.48208        -0.136222      1.862537     -0.547682
O       9.52716      7.58148      6.95707        -0.021821     -0.580491     -0.930459
O       9.56416      7.58447     10.99386        -0.418979     -0.290897     -0.267386
O       9.20965     11.33571      2.61103         0.745879     -0.572389      0.183777
O       9.34772     11.44291     15.23186         0.565943     -0.658341     -0.255439
O       9.36270     11.39020      6.78483         0.255026      0.558440     -0.384197
O       9.51681     11.38011     11.10567        -0.276055     -0.902599      0.149580
