  # total energy = -7883.05286008 
CRSYTAL
PRIMVEC
    15.3600000000000000    0.0000000000000000    0.0000000000000000
     0.0000000000000000   15.3600000000000000    0.0000000000000000
     0.0000000000000000    0.0000000000000000    17.440000000000000
PRESSURE
2.13431 2.44813 3.98175 0.008043 0.214752 0.017722
PRIMCOORD
320 1
Pb       3.85513      3.75320      4.28174        -0.305895      0.090820      1.081021
Pb       3.74466      3.78113     17.41553        -0.219603      0.149757     -0.075041
Pb       3.78879     15.27538      4.31241         0.126045      0.700971      0.897988
Pb       3.70885     15.26132     17.30957         0.596277      0.403986      0.599493
Pb       0.04089      3.74613      4.24555         0.364720      0.503498      0.483640
Pb       0.00119      3.82792     17.35330         0.489167      0.104007      0.910992
Pb       0.01258     15.35446      4.28508         0.195282     -0.229324      0.484048
Pb       0.02732     15.30671     17.36364        -0.141644      0.713731      0.580802
Pb       3.77343      3.77642      8.73874         0.518572      0.524499     -0.165324
Pb       3.84297      0.03543      8.51204         0.036180     -0.360154      1.665056
Pb       0.05348      3.90370      8.71554        -0.900068     -0.112265      0.133827
Pb      15.24673     15.33227      8.70582         0.442652      0.195252      0.298165
Pb       3.80070      3.82325     13.03376        -0.180730     -0.450923     -0.033150
Pb       3.80002      0.08839     12.95800         0.313489     -0.407981      0.494115
Pb       0.03370      3.82040     13.03123         0.163663     -0.024437      0.413779
Pb      15.31113     15.28084     13.06637         0.474021      0.104442     -0.135642
Pb       3.80979      7.64934      4.34664        -0.002622      0.052298     -0.260186
Pb       3.85072      7.58211     17.31710        -0.488879      0.300155      0.764050
Pb      15.31946      7.77447      4.29166         0.416278     -0.395429      0.162644
Pb      15.26696      7.55499     17.41544         0.316200     -0.109664     -0.211615
Pb       3.74219      7.73603      8.62891         0.482932      0.079654      0.289794
Pb      15.35791      7.69798      8.63908        -0.081001     -0.116752      0.382304
Pb       3.84424      7.60825     12.94183        -0.354268      0.751949      0.591405
Pb      15.29141      7.58374     13.04212         0.194033      0.403616      0.731776
Pb       3.90914     11.52693      4.33954        -0.566869     -0.523176      0.233314
Pb       3.73047     11.62667     17.36348         0.847735     -0.834379      0.399842
Pb      15.23279     11.45573      4.39574         0.236356      0.409008     -0.252160
Pb      15.30661     11.55164     17.35274        -0.016249     -0.963767      0.497899
Pb       3.90085     11.47752      8.65187        -0.531138     -0.008000      0.549664
Pb      15.28658     11.53553      8.71158         0.110807      0.306700     -0.081573
Pb       3.80785     11.44940     13.01799        -0.279331      0.190160     -0.252814
Pb       0.05315     11.52154     12.97510         0.084022     -0.126077      0.351445
Pb       7.67240      3.76663      4.26820        -0.138321      0.359751      0.235746
Pb       7.55134      3.76443      0.03971         0.584953      0.350867      0.427411
Pb       7.69002     15.23552      4.38657        -0.374079      0.310580     -0.168684
Pb       7.71186     15.35852     17.41553        -0.193168     -0.488616     -0.192367
Pb       7.65900      3.87573      8.59819        -0.170487     -0.148110      0.376402
Pb       7.63741      0.04489      8.69868         0.139490      0.059935      0.236077
Pb       7.74353      3.88806     12.93941        -0.243529     -0.909169      0.837847
Pb       7.59282      0.04581     12.98760        -0.021595      0.366405      0.069043
Pb       7.76112      7.65442      4.35069        -0.573427     -0.080847      0.010262
Pb       7.55560      7.75173     17.36792        -0.217659     -0.284928      0.271852
Pb       7.75760      7.58668      8.66759        -0.549943      0.369980      0.662271
Pb       7.70925      7.72473     13.02620        -0.202676     -0.150924      0.239524
Pb       7.65920     11.50388      4.32250         0.281358     -0.382769      0.343286
Pb       7.65971     11.44395     17.39146        -0.881924      0.443785      0.315146
Pb       7.62722     11.59204      8.61908         0.341846     -0.287739      1.018271
Pb       7.60983     11.45711     12.93853        -0.032352      0.346955      0.334801
Pb      11.42887      3.85071      4.24048         0.224914     -0.273442      0.689216
Pb      11.58316      3.82331     17.42317        -0.141385      0.108668      0.545578
Pb      11.54771     15.23278      4.39709         0.083762      0.628735     -0.140369
Pb      11.41450     15.31407      0.09554         0.130207      0.208244     -0.503355
Pb      11.39946      3.79219      8.64013         0.854049      0.462881     -0.205684
Pb      11.50062      0.07659      8.69437        -0.042670     -0.231826      0.115624
Pb      11.57463      3.76843     13.02397        -0.340197      0.018932      0.775378
Pb      11.56924      0.00261     13.00409        -0.444137     -0.020237      0.348973
Pb      11.47003      7.60836      4.28966        -0.000003      0.549863      0.634582
Pb      11.52175      7.71329     17.38064        -0.090099     -0.801773      0.261890
Pb      11.53103      7.71251      8.64248        -0.238187     -0.620064      0.482552
Pb      11.49022      7.58802     13.11079         0.717844      0.150160      0.669345
Pb      11.52394     11.54020      4.20332        -0.299293     -0.370173      1.282007
Pb      11.43772     11.45899     17.38889        -0.015340      0.317223      0.474843
Pb      11.58262     11.50189      8.54652        -0.086307      0.576126      0.989503
Pb      11.57009     11.50999     13.05904        -0.184649     -0.101052     -0.193036
Ti       2.01169      1.85050      2.32525        -0.647319      0.561602     -1.115116
Ti       1.90605      1.89392     15.40306         0.503594      0.651397      0.353042
Ti       1.94848     13.38026      2.32250        -1.118950      0.316666      1.972254
Ti       1.85493     13.39458     15.39172         0.879676      0.095747     -0.207985
Ti      13.48983      1.94890      2.38279        -0.309179     -0.751555      1.116880
Ti      13.46371      1.84616     15.36485        -0.097331      1.190348      1.619452
Ti      13.48021     13.48547      2.29326         0.078834      0.149158      1.692621
Ti      13.35104     13.43551     15.49104        -0.364270     -0.342364     -0.347986
Ti       1.88647      1.96746      6.80628        -0.119539     -0.534451     -0.559021
Ti       1.89199     13.46089      6.73559        -0.748221      0.403735      0.811284
Ti      13.45845      1.91802      6.61885        -0.643028      0.602121      4.049435
Ti      13.36394     13.48219      6.71669         0.722823     -0.258520      0.165959
Ti       1.90334      1.84842     10.99254         0.059512      0.630672      0.917045
Ti       1.92097     13.42779     10.97985        -0.203397      0.237188     -0.515209
Ti      13.54975      1.90126     11.01140        -1.765258      0.173498      1.128468
Ti      13.38943     13.41863     11.07556         0.525264     -0.000319     -0.180054
Ti       1.91016      5.72243      2.37794        -0.108945      0.134404     -1.237575
Ti       1.96415      5.75998     15.36435        -0.942292     -0.524585      0.297022
Ti      13.39490      5.80743      2.45305         0.653717     -0.993849     -0.866530
Ti      13.35649      5.68025     15.44330         0.680991     -0.101108      1.309013
Ti       1.89085      5.82222      6.79264         0.328363     -0.726836     -0.717386
Ti      13.43718      5.75881      6.59528        -0.943043     -0.810426      1.445262
Ti       1.93990      5.76275     11.07091        -2.089151      0.057562     -0.180344
Ti      13.46039      5.69431     11.10363        -0.456559      0.471805      1.350835
Ti       1.94153      9.60896      2.28524        -0.570381     -0.386010      0.467305
Ti       1.84933      9.55570     15.37890        -0.407531     -0.257190     -1.205975
Ti      13.37447      9.67238      2.28561         0.157084     -0.648253      1.387476
Ti      13.36752      9.58703     15.43200         0.701909     -0.735883     -0.398144
Ti       1.88223      9.68358      6.61133         0.187773     -0.555552      0.762119
Ti      13.43026      9.55327      6.70922        -0.099738      0.728257     -0.213576
Ti       1.85452      9.54346     11.03061         0.446798      0.770056      1.758196
Ti      13.46305      9.56250     11.11152        -0.814945     -0.076641      0.709388
Ti       5.78625      1.88297      2.35505         0.112410     -0.504979      0.544595
Ti       5.80292      1.86593     15.53475        -0.816109     -0.398890     -1.662462
Ti       5.68934     13.41564      2.42682         1.222175     -0.468165     -1.130237
Ti       5.81727     13.39076     15.34512        -0.861476      0.190340      2.118076
Ti       5.79971      1.93656      6.68612        -0.676840      0.299575      0.152801
Ti       5.71452     13.39690      6.72847         0.038852      0.669945      0.142240
Ti       5.73721      2.00349     10.93631         0.530361     -0.914068      0.892261
Ti       5.71527     13.47637     11.03425        -0.473357     -0.426774      0.390598
Ti       5.67274      5.72881      2.33037         0.317067      0.472362      1.130753
Ti       5.75982      5.65030     15.32969        -1.060867      0.911110      1.231886
Ti       5.70990      5.76247      6.64579        -0.367478     -0.082076      0.619214
Ti       5.73939      5.77036     11.06590         0.334385     -0.293083     -0.212629
Ti       5.75296      9.60636      2.40377        -0.687905     -0.932855     -0.352718
Ti       5.61245      9.58799     15.38556         0.414388     -0.246555      0.436750
Ti       5.79340      9.54443      6.66958        -0.431773      0.211905      0.916899
Ti       5.74974      9.56280     11.01858        -1.137338      0.476564      0.077558
Ti       9.63830      1.80858      2.31902         0.488553      0.373281      0.800375
Ti       9.64617      1.99688     15.51579         0.109009     -1.161719      1.017035
Ti       9.58449     13.39042      2.39110        -0.621362     -0.445382      1.067475
Ti       9.59858     13.37996     15.32234        -0.102966      1.199617      1.056816
Ti       9.58974      1.92614      6.60580         0.603904     -0.006352      1.373240
Ti       9.53607     13.47097      6.73376         0.998933     -0.077809      0.926643
Ti       9.66090      1.88247     11.00187        -0.888496     -0.057288      1.438840
Ti       9.52267     13.46398     11.06016         0.476394      0.372221     -0.031419
Ti       9.53796      5.72590      2.30882         0.091789     -0.156722     -0.359753
Ti       9.47642      5.75451     15.53844         1.077230     -0.721133      0.911322
Ti       9.53170      5.77152      6.72026         1.604139     -0.147288     -0.729415
Ti       9.60591      5.74059     11.14264         1.536610     -0.277240     -1.391511
Ti       9.55111      9.52594      2.26368         0.076037      0.234092      3.552046
Ti       9.54079      9.59303     15.40268        -0.007720     -0.780454     -0.020808
Ti       9.52305      9.63127      6.78342         0.626049     -0.040354      0.243573
Ti       9.60394      9.59522     11.09846         0.610965      0.079723      0.787662
O       2.02073      1.76126      0.52793        -0.232818      0.354256      1.290246
O       1.83483      1.90484     13.66402         0.368842      0.002257     -0.905867
O       1.97565     13.40554      0.61801        -0.236982     -0.042036     -1.751216
O       1.92044     13.39192     13.65803        -0.242116     -0.009597      0.297018
O      13.70416      1.89532      0.71555        -0.532754     -0.242572     -1.823834
O      13.43308      1.94847     13.63248         0.231552     -0.338860      0.288266
O      13.39472     13.46643      0.57930         0.052621     -0.006206     -0.846809
O      13.29065     13.41938     13.72107         0.181022      0.129544      0.292111
O       1.93064      1.99372      5.05080        -0.051026     -0.139956     -0.285597
O       1.84526     13.48365      4.98920         0.127964     -0.023189      0.090885
O      13.36039      1.85538      4.96126         0.271571      0.136025     -2.556062
O      13.48490     13.38277      4.98450        -0.117483      0.411582     -0.800350
O       1.98779      1.86249      9.26791        -0.398831      0.218928     -0.252327
O       1.96595     13.55157      9.20632        -0.256536     -0.500021      0.682102
O      13.45561      1.80541      9.30038        -0.168293      0.384318     -0.358870
O      13.44714     13.40021      9.33564        -0.043886      0.102236     -0.341080
O       1.85388      5.67796      0.57827         0.465265      0.464539      0.739820
O       1.97525      5.72449     13.59685         0.195292      0.009293     -0.106249
O      13.47217      5.70636      0.67462        -0.105719      0.313164      0.324085
O      13.39377      5.62841     13.74443         0.070663     -0.028635     -1.233858
O       1.92405      5.72895      5.06239        -0.026610      0.059950     -0.088479
O      13.40351      5.77273      4.87623         0.164621     -0.079741     -1.124001
O       1.76919      5.88196      9.31667         0.307524     -0.130371     -0.537918
O      13.50231      5.68906      9.41775        -0.211222      0.283891     -1.422429
O       1.77348      9.51561      0.54086         0.440874      0.240979      0.567246
O       1.77482      9.57012     13.55352         0.432490      0.307936      1.839873
O      13.32524      9.57417      0.57920         0.068226      0.042931     -1.130278
O      13.39802      9.45523     13.69661        -0.070510      0.713664     -0.200882
O       1.78236      9.46082      4.88727         0.155477      0.859224     -0.142816
O      13.50993      9.66116      4.96690        -0.247366     -0.256931     -0.170232
O       1.94876      9.53718      9.32714        -0.338441      0.040159     -1.729529
O      13.43451      9.72327      9.37564         0.100828     -0.503307     -0.543433
O       5.89192      1.85353      0.61396        -0.426793      0.077085     -0.639137
O       5.72604      1.85059     13.72194         0.260584     -0.052128      1.368121
O       5.74752     13.23297      0.67661        -0.167625      0.519449      0.425918
O       5.60335     13.50651     13.66653         0.361499     -0.121287     -1.662098
O       5.74745      1.91111      4.93330         0.217343     -0.004058      0.169151
O       5.75521     13.42090      4.97364        -0.204910     -0.257564     -0.197721
O       5.89449      1.96528      9.20151        -0.328659      0.323740     -0.067390
O       5.78686     13.42837      9.30697        -0.084066     -0.183628     -0.749846
O       5.58424      5.59003      0.60307         0.294031      0.495163     -0.031247
O       5.78924      5.82618     13.60231        -0.112687     -0.370689     -0.954636
O       5.78409      5.71303      4.92060        -0.283694      0.147376     -0.301067
O       5.83995      5.81691      9.34852        -0.205241     -0.307274     -0.283983
O       5.69732      9.70491      0.66859         0.194119     -0.476479     -0.932774
O       5.67990      9.49554     13.65035         0.174716      0.225275     -0.622433
O       5.85227      9.53539      4.94937        -0.209464      0.420889     -0.820879
O       5.66286      9.59943      9.27888         0.204673     -0.071467      0.084772
O       9.75706      1.80705      0.57871        -0.859896     -0.234022     -0.211622
O       9.57078      2.02322     13.82794        -0.161808     -0.096793     -1.559743
O       9.61225     13.32534      0.69122        -0.234955      0.391079     -1.062520
O       9.76489     13.37528     13.60153        -0.367754     -0.021511     -0.283207
O       9.66776      1.93573      4.89683        -0.278382     -0.092626     -1.349809
O       9.66437     13.21729      5.04085        -0.648797      0.774994     -1.206285
O       9.62384      1.81761      9.27129         0.041806      0.430887     -0.311802
O       9.56086     13.68569      9.32136        -0.266345     -0.736435     -0.108995
O       9.56545      5.73377      0.56563        -0.196385      0.245274      0.303333
O       9.67758      5.66418     13.82004        -0.841481      0.209569     -0.449499
O       9.60488      5.77376      4.96288        -0.203979      0.114697     -0.150695
O       9.74521      5.74315      9.33231        -0.496126      0.054094      0.826612
O       9.48653      9.51676      0.60013        -0.011281      0.149982     -2.552844
O       9.53727      9.56179     13.64712        -0.248552      0.146812      0.311560
O       9.47061      9.61247      5.07924         0.205420     -0.225594     -1.051827
O       9.56592      9.45078      9.38522         0.195228      0.254448     -0.464600
O       3.89216      1.77919      2.80067        -0.080572      0.366033     -0.290435
O       3.80025      1.83364     15.89883         1.023203      0.309425     -0.322966
O       3.81157     13.41319      2.90698         0.189705      0.085921     -0.546088
O       3.79116     13.35173     15.87857        -0.503542      0.228053     -0.621057
O       0.07928      1.87976      2.80091        -0.089430      0.259558      0.067103
O       0.11045      1.89441     15.96130        -1.931350     -0.283402     -0.719055
O       0.00545     13.39364      2.73191        -0.030199      0.411158     -0.245795
O      15.28880     13.30743     15.87214        -0.014089      0.694246     -0.519048
O       3.85132      1.97589      7.26614         0.590110      0.136962     -0.921391
O       3.81886     13.38204      7.16094         0.213404      0.185637     -0.637201
O      15.30938      1.95349      7.21535         0.505798     -0.184667     -0.618369
O      15.29348     13.56067      7.27822         0.926839     -0.660580     -0.899730
O       3.81364      1.99146     11.37608         0.494725     -0.426587      0.201058
O       3.73922     13.38619     11.51289         1.250332      0.156349     -0.243494
O      15.32394      1.91760     11.47532         1.489455     -0.060564     -0.142578
O      15.35497     13.50662     11.46740        -0.041796     -0.168818      0.117154
O       3.79591      5.65845      2.84861         0.464229      1.001875     -0.221670
O       3.84721      5.71486     15.91770        -0.315620     -0.587510     -0.697463
O       0.11124      5.72367      2.86552        -1.407319     -0.288921     -0.116325
O       0.05609      5.66024     15.84928        -0.481139      0.860055     -0.308585
O       3.83498      5.69911      7.19276        -0.312627      0.681936     -0.093948
O      15.30584      5.77265      7.19285         0.720349      0.368950     -0.367349
O       3.72068      5.67651     11.35182         2.886751      0.650976      0.427755
O       0.02492      5.68566     11.57058        -0.520703      0.385157     -0.288362
O       3.82759      9.62696      2.83772        -0.953164     -0.169744     -0.161169
O       3.75885      9.56249     15.75994        -0.417567      0.538752      0.123662
O      15.21987      9.63192      2.71965         1.314197      0.212634      0.089582
O      15.23232      9.52671     15.86347         0.466323      0.420728     -0.029250
O       3.82310      9.68765      7.04963        -0.077028     -0.132468     -0.228031
O      15.30926      9.66236      7.17266         0.403321     -0.570683     -0.308491
O       3.73404      9.58407     11.44893         1.384373     -0.125794      0.133027
O      15.31406      9.48195     11.61665        -0.310995      0.382429     -0.905385
O       7.66476      1.96979      2.77632         0.638298     -0.403720     -0.174085
O       7.73186      1.89233     15.99254        -0.973610     -0.470397     -0.296763
O       7.59665     13.36278      2.91522         1.077747     -0.092119     -0.413861
O       7.68610     13.42998     15.78851         0.399403     -0.079341     -0.273173
O       7.68564      2.00721      7.10769         0.180457     -0.393674     -0.365824
O       7.60727     13.46992      7.12691         1.021998      0.039662     -0.120786
O       7.61381      1.93874     11.41718         0.399045     -0.080615      0.191495
O       7.59672     13.46565     11.45615         0.473616     -0.307724      0.306444
O       7.66115      5.80545      2.82298         0.005972     -0.688875     -0.700995
O       7.51588      5.71103     15.96694         1.314480      0.590198     -0.516956
O       7.61758      5.78314      7.06787         0.719735      0.045003      0.233145
O       7.74712      5.77179     11.39640        -0.698257      0.012619      0.466885
O       7.62226      9.49329      2.78153         1.436320      0.408229     -0.216980
O       7.53672      9.57522     15.87712         0.820411     -0.516831     -0.349962
O       7.65893      9.51543      7.20862         0.054676      0.660129     -0.010487
O       7.63673      9.58656     11.44436         0.496435     -0.415995      0.251924
O      11.51083      1.71007      2.66510         0.054780      0.494327      0.323257
O      11.57296      1.96702     15.94215         0.626588     -0.283319     -0.539847
O      11.45599     13.48806      2.83203         0.848851     -0.206363     -0.486606
O      11.43936     13.44470     16.05140         0.268748     -0.471818     -0.890552
O      11.50005      1.88310      7.15624         0.531835      0.697751     -0.403818
O      11.46898     13.41157      7.06653         0.342024      0.279359      0.301102
O      11.48821      1.88160     11.53551         0.472843     -0.163632     -0.762338
O      11.51833     13.51375     11.37728        -0.381960     -0.372274      0.411462
O      11.48731      5.79551      2.87123         0.222375     -0.268642     -0.703284
O      11.45911      5.68112     15.97334        -0.025787     -0.025483     -0.381544
O      11.49237      5.77041      7.03710         0.210428      0.002427      0.296554
O      11.48557      5.65717     11.70544         0.303421      0.122457     -0.958211
O      11.49564      9.54032      2.78419         0.130509     -0.012100     -0.393287
O      11.47171      9.61466     15.85538        -0.990352     -0.517025     -0.117081
O      11.51020      9.65128      7.22450         0.230537     -0.374901     -0.679024
O      11.47924      9.63807     11.59692         0.269825      0.230318     -0.561172
O       2.02059      3.79613      2.74531        -0.357643     -0.544975     -0.051425
O       1.93107      3.83930     15.77096         0.424493     -0.331133      0.021731
O       1.95744      0.02580      2.79459        -0.190241     -1.207300     -0.058815
O       1.84669     15.35816     15.77838         0.167529     -1.778753     -0.038065
O      13.37682      3.79648      2.77362         0.183047      0.518490      0.257523
O      13.56909      3.80282     15.95623        -1.010975     -0.812589     -0.711602
O      13.48280      0.00955      2.86920        -0.122827     -0.880710     -0.364390
O      13.43673     15.35721     15.84471         0.133554     -0.172991     -0.136461
O       1.96553      3.82449      7.25402        -0.590294      0.992789     -0.005970
O       2.00463      0.07554      7.17179        -0.608562     -0.930087     -0.690975
O      13.48353      3.90460      7.16642        -0.406035     -0.673101     -0.537422
O      13.41622      0.01280      7.14943        -0.163793      0.268299     -0.394374
O       1.96926      3.81459     11.47304        -0.664511     -0.290807     -0.208833
O       1.95396     15.34500     11.51388        -0.494518      0.472995     -0.304296
O      13.44773      3.82672     11.51302        -0.021942     -0.817997     -0.265501
O      13.50758      0.02260     11.57493        -0.549818     -0.453640     -0.385219
O       1.87569      7.70181      2.81227         0.334137      0.054088     -0.475703
O       1.87258      7.67590     15.68169         0.192924     -0.334813      0.513937
O      13.52582      7.61908      2.74509        -0.624748      1.215451     -0.083404
O      13.32144      7.54891     15.77272         0.303723      1.199268      0.611848
O       1.95389      7.76206      7.09323        -0.434274     -0.501219      0.134306
O      13.35153      7.66687      7.09482         0.634111      0.406961     -0.113235
O       1.88328      7.73139     11.48354        -0.004180     -1.822596     -0.056045
O      13.29425      7.62444     11.55016         0.612690      0.186800     -0.432204
O       1.91675     11.57025      2.77871         0.120409     -1.242787     -0.187291
O       1.82500     11.46451     15.88319        -0.044798      0.270126     -0.402510
O      13.37254     11.59135      2.76344         0.112824     -0.488778     -0.524096
O      13.21669     11.50563     15.86473         0.923713      0.124150     -0.219371
O       1.87058     11.53005      7.08838        -0.210888      0.346232     -0.177217
O      13.52568     11.58853      7.04755        -0.481703     -0.958679      0.629234
O       1.86330     11.54461     11.45341        -0.333922     -0.544336     -0.224026
O      13.54904     11.49062     11.48495        -0.691712      0.387029      0.190640
O       5.66590      3.80598      2.80793         0.767515     -0.101175     -0.525880
O       5.81712      3.78456     15.85775        -0.666892     -0.461734     -0.277460
O       5.87465     15.29649      2.83140        -0.508693      0.418090     -0.227469
O       5.65578     15.24480     15.97539         1.039973      0.813312     -0.478842
O       5.75512      3.88640      7.09348         0.192171     -0.478756      0.144260
O       5.79413      0.00843      7.12788        -0.204603      0.017378     -0.524517
O       5.76266      3.84078     11.53130        -0.177276      0.538089     -0.490108
O       5.76565     15.33348     11.36151        -0.520407      1.072957      0.281603
O       5.70983      7.68207      2.79087        -0.319405     -1.056155     -0.266134
O       5.50053      7.61325     15.76432         1.544521      0.330684      0.024534
O       5.72642      7.73513      7.02925        -0.219939     -1.188143      0.319192
O       5.82419      7.65647     11.44707        -0.596355     -0.103660      0.114988
O       5.70829     11.45128      2.78545         0.134968      1.148652      0.793340
O       5.75018     11.51737     15.83101        -0.237513     -0.363564     -0.355655
O       5.80328     11.53738      7.23141        -0.140946     -0.406283     -0.820555
O       5.72564     11.47121     11.46540        -0.043045      0.119843      0.033580
O       9.70161      3.80423      2.65254        -0.503817     -0.198916      0.173886
O       9.53503      3.82693     16.02118        -0.117317      0.570378     -0.213819
O       9.55574     15.27203      2.85791        -0.540712      0.361020     -0.297007
O       9.64887     15.30146     15.79021        -0.229562      0.004577      0.345211
O       9.65088      3.83440      7.02331        -0.498759      0.377244      0.397916
O       9.71124      0.08029      7.11595        -1.158779     -1.187294     -0.579168
O       9.60091      3.75888     11.55806        -0.044941      0.550335     -0.667776
O       9.49263      0.01041     11.54320         0.360342      0.135151      0.002430
O       9.67063      7.63298      2.73202        -0.568765      0.386084      0.067076
O       9.54886      7.67069     15.97559        -0.364400      0.103070     -0.647298
O       9.60167      7.68299      7.21816         0.052601     -0.149307     -0.424947
O       9.76852      7.62611     11.66423        -1.606356      0.361626     -1.059828
O       9.64299     11.41913      2.79643        -0.651725      0.428605     -0.392117
O       9.49393     11.42764     15.83802         0.499822      0.713843     -0.242647
O       9.60936     11.54383      7.16350        -0.713537     -0.086845      0.336797
O       9.47399     11.56130     11.51846         0.568876     -0.498696     -0.548327
