  # total energy = -7882.90075760 
CRSYTAL
PRIMVEC
    15.3600000000000000    0.0000000000000000    0.0000000000000000
     0.0000000000000000   15.3600000000000000    0.0000000000000000
     0.0000000000000000    0.0000000000000000    17.440000000000000
PRESSURE
1.29406 1.2355 -4.61261 -0.183572 -0.299744 0.026599
PRIMCOORD
320 1
Pb       3.86479      3.76705      4.28212         0.025803      0.014785      0.434307
Pb       3.73811      3.81233     17.42666         0.409869      0.160506     -0.153967
Pb       3.80630     15.28849      4.30896         0.391424     -0.133572      0.405259
Pb       3.75821     15.25720     17.34956         0.201716      0.094560      0.338497
Pb       0.03525      3.78241      4.25881        -0.214064      0.192181      0.671069
Pb      15.30723      3.80526     17.33918         0.363991     -0.002295      0.395099
Pb      15.35906      0.00871      4.33227         0.123015     -0.441205      0.220351
Pb       0.08989     15.35494     17.36151        -0.042319     -0.465248      0.417558
Pb       3.82470      3.78180      8.71671         0.446605      0.451090      0.375838
Pb       3.83528      0.02288      8.50219         0.085658     -0.299246      1.050829
Pb       0.10581      3.86524      8.72366        -0.361625      0.101093      0.348508
Pb      15.30091     15.30099      8.69965         0.010007      0.268847      0.100104
Pb       3.82741      3.85157     13.08119         0.095414     -0.111269     -0.204306
Pb       3.86678      0.10634     13.02356        -0.038049     -0.283975      0.853799
Pb       0.03165      3.84562     13.01931        -0.073235     -0.133864     -0.197953
Pb      15.32126     15.29004     13.09215        -0.054896     -0.078256     -0.066964
Pb       3.80189      7.64832      4.35260        -0.027696      0.357254      0.388490
Pb       3.88456      7.63014     17.33300        -0.326557      0.033124      0.564820
Pb      15.27130      7.73285      4.30084         0.401679     -0.341286      0.578781
Pb      15.33198      7.54620      0.00444         0.479692      0.398541     -0.032039
Pb       3.72222      7.73573      8.59861         0.466215      0.065052      0.930360
Pb      15.35496      7.71553      8.62863        -0.092163     -0.000018      0.647478
Pb       3.87522      7.65473     12.96582        -0.381870     -0.026124      0.841684
Pb      15.27428      7.61542     13.02493         0.114595      0.482654     -0.141791
Pb       3.93665     11.49570      4.37452        -0.486815     -0.015007      0.214433
Pb       3.70060     11.63151     17.39476         0.216221     -0.625287      0.291515
Pb      15.23679     11.40638      4.42275         0.499280      0.610133     -0.278140
Pb      15.34185     11.51914     17.41246         0.065774     -0.137415     -0.070542
Pb       3.90775     11.45669      8.63695        -0.272689      0.001656      0.127318
Pb      15.31739     11.58574      8.69997         0.196833     -0.383691      0.005537
Pb       3.79096     11.48000     13.04834         0.047263      0.023613      0.310847
Pb      15.35944     11.51622     12.96803        -0.182835     -0.316276      0.229451
Pb       7.64019      3.84193      4.26039         0.147432     -0.473758      0.241898
Pb       7.56867      3.76029      0.06237        -0.116618      0.183849     -0.525936
Pb       7.63779     15.23360      4.40450         0.090371      0.034658     -0.125730
Pb       7.77187     15.33638     17.42798        -0.412899     -0.113081     -0.036969
Pb       7.66212      3.87454      8.61343        -0.054405     -0.231883      0.256301
Pb       7.64761      0.08244      8.72526         0.082118      0.012662     -0.305228
Pb       7.69445      3.82538     12.93141        -0.046436      0.073025      1.098125
Pb       7.61157     15.33940     13.03823        -0.122309      0.191673      0.541258
Pb       7.74612      7.69266      4.37182        -0.008758      0.197106      0.077903
Pb       7.58209      7.75004     17.36580        -0.047374     -0.706155      0.540515
Pb       7.77314      7.54658      8.69689        -0.664847      0.630145      0.471998
Pb       7.74907      7.73079     13.07171        -0.469175     -0.250200      0.389516
Pb       7.64960     11.50776      4.33356        -0.095357     -0.444826      0.510714
Pb       7.66346     11.42322     17.38223         0.262502      0.308587      0.069501
Pb       7.63622     11.59278      8.65809         0.225859     -0.548591      0.455040
Pb       7.58095     11.45132     12.96799         0.173974      0.079712      0.493548
Pb      11.45409      3.89533      4.28187         0.139692     -0.227994     -0.048121
Pb      11.53667      3.83435     17.41935        -0.147909     -0.198382      0.309904
Pb      11.56276     15.28149      4.43601        -0.228895      0.197978     -0.510172
Pb      11.46753     15.34721      0.09243        -0.143492     -0.194524     -0.357865
Pb      11.47498      3.72145      8.65774        -0.141743      0.768273      0.387664
Pb      11.51148      0.10117      8.72253         0.113460     -0.468630     -0.215231
Pb      11.53775      3.78848     12.98547         0.107929      0.302016      0.208326
Pb      11.54280      0.01140     13.06186         0.159323     -0.550786     -0.076694
Pb      11.49183      7.59921      4.36498        -0.524953      0.501482     -0.391079
Pb      11.51088      7.74332     17.35898        -0.043317     -0.426651      0.617601
Pb      11.53359      7.70393      8.65780         0.009171     -0.333757      0.193671
Pb      11.52699      7.59175     13.13882         0.056912      0.155424     -0.173155
Pb      11.49424     11.56974      4.23115        -0.066205     -0.567887      0.405607
Pb      11.48460     11.47546     17.40643        -0.282904      0.166423      0.023874
Pb      11.56687     11.50863      8.57466        -0.687263     -0.018928      0.890087
Pb      11.55199     11.53413     13.09193        -0.189997      0.106509      0.240498
Ti       1.92371      1.89148      2.35307         0.290747     -0.672797     -1.966114
Ti       1.93085      1.89458     15.41002        -0.032907     -0.593517     -1.598765
Ti       1.89972     13.40173      2.42424         0.046000     -1.264779     -1.431189
Ti       1.91447     13.36821     15.37776        -0.050638      0.310449     -0.789439
Ti      13.39367      1.87706      2.38841         0.034796      0.012205     -1.034674
Ti      13.46519      1.84963     15.39875         0.072621      0.179945     -1.195938
Ti      13.43669     13.44201      2.34713         0.726891     -0.655033     -1.384221
Ti      13.36452     13.46023     15.51356         0.293723     -1.228673     -1.782923
Ti       1.89852      1.96243      6.81133        -0.134908     -0.373996     -0.802092
Ti       1.86114     13.49178      6.75852         0.593241     -0.776875     -1.868556
Ti      13.42471      1.94227      6.72782         0.398037     -0.683112     -2.055383
Ti      13.41690     13.42585      6.66578         0.331843     -0.089348     -0.420901
Ti       1.89936      1.80234     11.07324         0.181254      1.417562     -1.238788
Ti       1.92284     13.46001     11.03228        -0.722010     -0.794441     -0.125402
Ti      13.47044      1.89135     11.03252         0.298741     -0.038088     -0.429066
Ti      13.39903     13.41786     10.95952        -0.164857      0.293572     -0.525254
Ti       1.91660      5.75278      2.39745        -0.119002     -0.022530     -2.017080
Ti       1.96665      5.72427     15.34935        -0.381427     -0.217428     -0.345924
Ti      13.47146      5.76583      2.40835        -1.105880     -0.083211     -1.654227
Ti      13.44696      5.66765     15.49170        -1.011991      0.811099     -1.403390
Ti       1.90005      5.77425      6.75428        -0.343424      0.371754     -1.847211
Ti      13.42701      5.66955      6.66941         0.076204      1.102226     -0.400602
Ti       1.87140      5.74409     11.07390         0.387054     -0.017547     -0.713518
Ti      13.36662      5.78086     10.99589         0.822689     -0.434047     -0.190905
Ti       1.81357      9.53663      2.39402         1.563457      1.015113     -1.716031
Ti       1.86296      9.53873     15.35039         0.271066     -0.028148     -1.133513
Ti      13.37817      9.61482      2.32589        -0.916606      0.574100     -1.935096
Ti      13.40872      9.55936     15.50614        -0.018807      0.344339     -1.698485
Ti       1.82105      9.64372      6.64634         0.887903      0.094035     -0.614455
Ti      13.39051      9.53862      6.70990         0.071273      0.154166     -1.195655
Ti       1.88601      9.56331     11.05548        -0.950622     -0.646718     -0.567523
Ti      13.33074      9.61196     11.03952         1.219394     -0.404316     -0.439313
Ti       5.75583      1.92568      2.23718         0.421577     -0.927349      0.073786
Ti       5.73022      1.84733     15.47116         0.427343      0.422021      0.700427
Ti       5.78476     13.40385      2.32060        -0.612618     -0.029316     -0.306098
Ti       5.78765     13.44547     15.46054        -0.249525     -0.467167     -2.534356
Ti       5.75336      1.88574      6.66091         0.754648      0.127496     -0.050630
Ti       5.73657     13.40446      6.76090         0.383631     -0.612881     -1.796888
Ti       5.78236      1.95765     11.00484        -0.227861      0.023817     -1.174710
Ti       5.63289     13.45285     11.06505         0.929938      0.122854     -1.279908
Ti       5.73668      5.82973      2.44201        -0.082474     -0.662060     -2.244818
Ti       5.72473      5.72880     15.35396         0.884784     -0.426686     -0.571400
Ti       5.68590      5.71786      6.70060         0.549386      0.462423     -0.814174
Ti       5.76630      5.77965     11.06136        -0.226292     -0.180388     -1.556417
Ti       5.64185      9.56540      2.36233         0.549461      0.590929     -0.704711
Ti       5.66555      9.63389     15.45086         0.116041     -0.341725     -1.820768
Ti       5.70928      9.54161      6.69812         0.337441      0.205386     -1.363235
Ti       5.66179      9.54568     11.03733         0.933859      0.175765     -1.044061
Ti       9.59966      1.80714      2.32281        -0.462286      0.168369     -0.868454
Ti       9.62735      1.91534     15.46670        -1.797752     -0.474454     -0.940812
Ti       9.58273     13.36021      2.36757         0.528853      0.096458     -1.627402
Ti       9.57369     13.42115     15.39615        -0.630564     -0.542302      0.287370
Ti       9.58218      1.94595      6.57080        -0.873559     -0.133233      0.681146
Ti       9.60815     13.48931      6.74788        -0.690083     -0.855508     -1.397386
Ti       9.63135      1.87313     11.01667        -0.476781      0.440373     -1.578780
Ti       9.53822     13.43579     11.05411         0.461832     -0.936785     -1.221786
Ti       9.54769      5.68978      2.28533         0.279341      0.961614      1.443838
Ti       9.54162      5.67647     15.53862        -0.460405     -0.086540     -2.147353
Ti       9.60550      5.78497      6.63837         0.279643     -0.465513     -1.646550
Ti       9.54573      5.70815     11.09343         0.403424      0.941812     -0.730822
Ti       9.51874      9.57992      2.33137        -0.008132     -0.672891     -1.170493
Ti       9.53168      9.50114     15.40566        -0.199428      1.196690     -1.016333
Ti       9.53816      9.58098      6.79499        -0.603513      0.191460     -1.381796
Ti       9.59822      9.57365     11.12003        -0.662684      0.187129     -1.204353
O       1.94861      1.72409      0.48382        -0.203638      0.632920      1.973671
O       2.00497      1.90527     13.58892        -0.497721     -0.008555      0.350309
O       1.93661     13.40904      0.50020        -0.067697     -0.200100      1.490585
O       1.95213     13.34864     13.59392        -0.217125     -0.019582      0.258412
O      13.45874      1.89420      0.59049        -0.091679     -0.038773      0.383920
O      13.50232      1.82433     13.54776        -0.399434      0.109557      1.558792
O      13.44757     13.37031      0.51688        -0.066432      0.120884      0.453350
O      13.24109     13.48007     13.62707         0.415519     -0.002548      1.658947
O       1.93271      1.99665      5.05814         0.111410     -0.103130     -0.842214
O       1.87724     13.48172      4.96163         0.046347      0.167353      0.366067
O      13.35440      1.84416      4.86278         0.081751      0.029259      1.277928
O      13.50090     13.39173      4.83139        -0.394898      0.137050      0.989886
O       1.82418      1.85893      9.19075         0.271632      0.095008      1.363160
O       1.86642     13.53004      9.26710        -0.153696     -0.196048     -0.106269
O      13.41201      1.86512      9.22778         0.024007     -0.063459     -0.232043
O      13.39920     13.51189      9.11391         0.204417     -0.239462      1.308555
O       1.93339      5.69557      0.54548        -0.319274     -0.088449      1.353012
O       2.02274      5.61654     13.52611        -0.573674      0.229403      1.281402
O      13.39605      5.82014      0.55748         0.282661     -0.488069      1.207578
O      13.44848      5.62039     13.68952        -0.225168      0.040972      0.222338
O       1.83349      5.75082      4.89663         0.311124     -0.091215      1.416347
O      13.52183      5.70672      4.87631        -0.440385      0.142629      0.168701
O       1.88898      5.80318      9.26955        -0.189742     -0.218526      0.280717
O      13.40235      5.77327      9.23882        -0.152815      0.069299     -0.024534
O       1.79585      9.58013      0.58846         0.241907      0.017930      0.811075
O       1.90835      9.56674     13.47211        -0.181579     -0.013786      2.259238
O      13.19467      9.59172      0.40996         0.726001     -0.157283      1.638503
O      13.35873      9.67184     13.67497         0.135468     -0.504304      0.911242
O       1.92593      9.50619      4.84639        -0.643183      0.225101      0.925869
O      13.43773      9.69726      4.90455         0.076529     -0.115022      0.266994
O       1.83361      9.43686      9.22884         0.083720      0.563709      0.866864
O      13.37032      9.46916      9.23161        -0.095130      0.278677      0.665496
O       5.62998      1.84247      0.45057         0.168997      0.348220      1.143234
O       5.74122      1.83783     13.71470         0.011702      0.023128     -0.466127
O       5.64068     13.33047      0.54827         0.395376      0.071967      0.679686
O       5.73501     13.47071     13.58369        -0.095702      0.158238      0.697877
O       5.79960      1.88200      4.90752         0.029969      0.023870     -0.006736
O       5.75551     13.29569      4.90048         0.260180      0.503989      1.100745
O       5.79364      1.97372      9.17885        -0.063954     -0.231961      0.918347
O       5.71628     13.43016      9.20568         0.003162      0.200333      1.246908
O       5.63899      5.82207      0.58305         0.240709     -0.165079      1.793514
O       5.77781      5.62957     13.55710        -0.274814      0.184597      0.664586
O       5.68106      5.71366      4.85432        -0.033480     -0.070620      1.184832
O       5.78819      5.67202      9.20011         0.028497      0.253649      1.200304
O       5.68843      9.56842      0.54449         0.095091     -0.182056      0.628672
O       5.70485      9.52899     13.62092        -0.217216      0.551055      0.860132
O       5.67805      9.69560      4.84509         0.300893     -0.560198      1.279609
O       5.62362      9.57384      9.21908         0.030293     -0.043961      1.343491
O       9.44471      1.77619      0.48520         1.007240      0.093830      1.051457
O       9.43128      1.92352     13.67120         0.723131      0.144414      0.115400
O       9.49958     13.32518      0.55874         0.370121      0.353994      0.566941
O       9.65738     13.31503     13.64431        -0.043514      0.600748     -0.480081
O       9.61394      1.82148      4.81832         0.122763      0.262407     -0.084550
O       9.51135     13.34840      4.90339         0.752948      0.203703      0.932722
O       9.52285      1.97572      9.14851         0.577487     -0.467222      1.690281
O       9.53894     13.38644      9.19734         0.132555      0.617123      1.713609
O       9.44515      5.73015      0.57134         0.301986     -0.208163     -1.288893
O       9.48131      5.69164     13.66731         0.625149     -0.286702      0.977130
O       9.68760      5.85368      4.75462        -0.295604     -0.285208      2.030483
O       9.62214      5.74434      9.32612        -0.210812     -0.015002     -0.299908
O       9.40168      9.57481      0.49146         0.613795     -0.026573      0.638893
O       9.45606      9.64787     13.57596         0.411114     -0.550595      1.191638
O       9.41403      9.38186      4.96846         0.623752      0.798234      1.399044
O       9.57890      9.62990      9.31617         0.227966     -0.544511      0.205661
O       3.88459      1.85100      2.81320        -0.424509      0.031496     -0.466918
O       3.74249      1.87433     15.73878         1.152437     -0.146888      0.490722
O       3.87795     13.50791      2.76496         0.111079     -0.211594     -0.178220
O       3.87215     13.35785     15.71497        -1.354147     -0.049464      0.524703
O       0.03683      1.93181      2.72099         0.174144     -0.333037      0.052012
O       0.00857      1.79097     15.75184        -1.020937      0.354804      0.211599
O       0.02113     13.47924      2.73848         0.169698     -0.446060      0.046645
O      15.35309     13.34994     15.76422        -0.243951      0.092441      0.035468
O       3.86239      1.93512      7.10624        -0.284614     -0.153816     -0.083412
O       3.84080     13.45579      7.03634        -0.359285     -0.007860      0.301910
O       0.00631      1.99440      6.99765        -1.209930     -0.064587      0.433087
O      15.33522     13.42155      7.02065        -0.828306      0.279494      0.559763
O       3.84678      1.97786     11.47163        -0.713283      0.042394     -0.483546
O       3.79294     13.47325     11.36390        -0.265336     -0.220256      0.264431
O       0.03994      1.83513     11.49436        -0.416864      0.082000     -0.166475
O      15.33907     13.43092     11.46048        -0.157281     -0.123738     -0.220181
O       3.78121      5.86622      2.73454         0.434278     -0.597743      0.232716
O       3.78668      5.61043     15.82412        -0.379175      0.492171     -0.398926
O      15.30603      5.71969      2.73414         0.411611     -0.079597     -0.010081
O      15.27031      5.76612     15.86506         1.429086     -0.470598     -0.145518
O       3.81399      5.81272      7.26090        -0.073682     -0.755948     -1.121906
O      15.30839      5.78743      7.15246         0.411893     -0.514276     -0.230735
O       3.90796      5.80602     11.44821        -1.162376     -0.718463     -0.277813
O      15.29187      5.74783     11.44565        -0.110745     -0.218035      0.089228
O       3.78595      9.47797      2.76909         0.324424     -0.114678     -0.174638
O       3.77752      9.58817     15.82361        -0.284520     -0.257844     -0.249446
O       0.00993      9.73194      2.68727        -1.702293     -0.434146      0.393397
O      15.35070      9.48932     15.85266        -0.271561     -0.016530     -0.313535
O       3.79275      9.68874      6.97382        -0.751986     -0.335622      0.417256
O      15.28854      9.54985      7.03437         0.737425      0.302773      0.084058
O       3.77605      9.47184     11.44147         0.194407      0.388920     -0.245644
O      15.30528      9.52711     11.48381        -0.263627      0.057617     -0.161078
O       7.73435      1.95885      2.55758        -0.905858      0.053189      0.524609
O       7.60602      1.78284     15.84638        -0.132546      0.525715      0.148041
O       7.78837     13.25002      2.75111        -2.186213      0.470333     -0.045128
O       7.62127     13.43691     15.75323         1.249681     -0.088418      0.300807
O       7.70171      1.90280      7.11913        -0.407886     -0.073531     -0.408446
O       7.69862     13.38870      7.02064        -0.451796      0.073338      0.420487
O       7.69405      1.77368     11.34654        -0.105904      0.250692      0.114535
O       7.61225     13.54575     11.50948         0.465646     -0.282319     -0.804263
O       7.67967      5.56169      2.73173        -0.629467      0.796038     -0.101520
O       7.59938      5.75799     15.73482         0.249383     -0.397634      0.543067
O       7.69659      5.85158      7.06922        -0.727574     -0.320499     -0.356882
O       7.66028      5.86458     11.40182         0.159083     -0.549378      0.121748
O       7.69203      9.69859      2.70118        -1.262422     -0.195233      0.198237
O       7.60814      9.41543     15.78660         0.127967      0.810040     -0.074086
O       7.58283      9.58632      7.16737         0.941963     -0.291830     -0.179990
O       7.64585      9.51394     11.52887        -0.898143      0.450034     -0.632524
O      11.52614      1.81100      2.62065         0.064566     -0.013166      0.358399
O      11.46589      1.85126     15.73376         1.525103      0.146187      0.298929
O      11.58200     13.37243      2.64879        -0.740195      0.352549      0.563094
O      11.44404     13.40768     15.90251         0.803593      0.201862     -0.016212
O      11.44723      1.97143      7.09243         0.179287     -0.416688     -0.179358
O      11.55389     13.48326      7.02195        -0.608323     -0.427745     -0.027254
O      11.55806      1.92270     11.35298        -0.693718     -0.068902      0.258486
O      11.52808     13.36773     11.44513        -0.598118      0.177925     -0.358001
O      11.48543      5.86621      2.63443         0.612906     -0.175435      0.468440
O      11.52037      5.48163     15.80536        -0.990255      0.747410      0.123865
O      11.51770      5.73019      7.06409        -0.563064     -0.030542     -0.118303
O      11.52540      5.67007     11.44116        -0.503891      0.131746      0.462914
O      11.46041      9.51350      2.73097         0.685848      0.175434      0.067795
O      11.38767      9.47504     15.73682         0.520148      0.597595      0.176115
O      11.51069      9.57774      7.04912        -0.798956      0.139764      0.191695
O      11.50609      9.60563     11.50887        -0.083430     -0.059113     -0.023031
O       1.96995      3.79256      2.69532        -0.025959     -0.315191      0.086027
O       1.81006      3.75120     15.72216        -0.101093      1.234603      0.449211
O       1.99129     15.28433      2.79971        -0.559677      1.447016     -0.037331
O       1.91470     15.28410     15.74635        -0.113245     -0.246136      0.036267
O      13.38877      3.83821      2.79421        -0.056215      0.040752     -0.418625
O      13.42112      3.75808     15.86815         0.444134     -0.991924     -0.007012
O      13.48157     15.28191      2.66765        -0.171873      1.287214      0.488854
O      13.49380     15.29415     15.81665        -0.628486      0.988659      0.085295
O       1.92025      3.90484      7.17588         0.095892     -0.304506      0.014811
O       1.83973      0.00321      7.08901         0.265396      0.585367      0.200845
O      13.32077      3.80659      7.00799         0.479062     -0.032847      0.362124
O      13.37224      0.00061      7.06859         0.226161      0.278443     -0.151495
O       1.82655      3.82786     11.36419         0.268267     -0.488007      0.097359
O       1.83565     15.30362     11.46231         0.541046      0.542310     -0.023136
O      13.43785      3.73957     11.29808         0.204207      1.079663      0.581415
O      13.43757     15.30088     11.34292        -0.155827      0.212221      0.355607
O       1.77517      7.61412      2.66329        -0.057985      0.374055      0.437449
O       1.89173      7.56172     15.87572         0.035089      0.455786     -0.821467
O      13.48777      7.82330      2.75624         0.212094     -1.856907     -0.015005
O      13.28193      7.60793     15.74836         0.210378     -0.010008      0.208347
O       1.88831      7.70326      7.09228        -0.052976     -0.075443     -0.372897
O      13.38012      7.65977      6.92803        -0.044059     -0.370485      0.401361
O       1.80697      7.58180     11.48846         0.353980      0.636841     -0.017305
O      13.36973      7.67564     11.51918        -0.188919     -0.371313     -0.102150
O       1.98303     11.49077      2.80129        -0.051158      0.725489     -0.249654
O       1.90565     11.42010     15.73625        -0.249169      0.256763      0.106515
O      13.40821     11.49527      2.67444         0.175280     -0.138843      0.410015
O      13.40560     11.45599     15.75713        -0.265764      0.531079      0.498802
O       1.81925     11.56792      7.10324         0.051737     -0.920801      0.072819
O      13.45246     11.48165      7.18218         0.060825      0.627591     -0.619245
O       1.87177     11.41722     11.39990         0.266328      1.209636     -0.184685
O      13.48384     11.52241     11.30699        -0.194256     -0.262718      0.125409
O       5.76387      3.80889      2.70353        -0.559799     -0.162711     -0.018254
O       5.63030      3.83261     15.86552         0.530845     -0.690684     -0.031722
O       5.94987     15.32654      2.75589        -0.515070     -0.060593     -0.406312
O       5.75760     15.24813     15.92272        -0.640013      1.407796     -0.257278
O       5.72625      3.79473      6.94259         0.098336      0.897096      0.431329
O       5.82376     15.30771      7.03489        -0.251710      0.482835      0.165738
O       5.81241      3.84212     11.40181        -0.014171     -0.250025      0.013494
O       5.56449      0.10192     11.44632         0.996581     -1.085298     -0.375512
O       5.78174      7.66842      2.82163         0.283540      0.075543     -0.237551
O       5.70223      7.63283     15.74275        -0.609540     -0.122352      0.200134
O       5.65685      7.67912      7.04194         0.117803     -0.572097     -0.215044
O       5.67623      7.67400     11.54245         0.735127      0.136724     -0.751723
O       5.64976     11.47209      2.76783         0.326198      0.336376     -0.441365
O       5.75963     11.50855     15.71021         0.088171     -0.748379      0.438424
O       5.71957     11.46457      7.10373         0.018996      0.770267      0.206571
O       5.60456     11.52072     11.35312         0.431807     -0.077049      0.176054
O       9.68801      3.77110      2.70322         0.082327      0.169648     -0.095862
O       9.43955      3.75303     15.95441         0.360308      0.474739      0.019665
O       9.62571     15.26227      2.72105        -0.058059      0.471437      0.141022
O       9.56418     15.34077     15.81983         0.210000     -0.416524      0.101502
O       9.42210      3.89675      6.93397         0.897487     -0.360507     -0.050761
O       9.53095     15.34665      6.91301         0.445136      0.498984      0.542436
O       9.53676      3.80918     11.34352         0.110544     -0.481621      0.494144
O       9.71489      0.02566     11.41445        -0.323974     -0.927133     -0.104467
O       9.41792      7.70233      2.75941         0.494706     -0.849163     -0.381587
O       9.58302      7.57232     15.79134         0.083548      0.193197      0.033731
O       9.59419      7.63951      7.13243         0.153028      0.353883      0.166847
O       9.54851      7.67569     11.41350         0.742116     -0.622140      0.494567
O       9.68735     11.45928      2.69380         0.172725      0.140442      0.385073
O       9.50023     11.50204     15.78147         0.091132     -0.751297      0.138859
O       9.53581     11.47545      7.23088         0.614159      0.012838     -0.850355
O       9.49377     11.46591     11.41258         0.069459      1.550273      0.151775
