  # total energy = -7882.37359089 
CRSYTAL
PRIMVEC
    15.2000000000000000    0.0000000000000000    0.0000000000000000
     0.0000000000000000   15.2000000000000000    0.0000000000000000
     0.0000000000000000    0.0000000000000000    17.000000000000000
PRESSURE
7.56491 7.94543 6.25507 0.024682 -0.044914 0.007051
PRIMCOORD
320 1
Pb       3.74195      3.79071      4.24566        -0.005809      0.155017     -0.156451
Pb       3.80589      3.80891     16.97930         0.514770     -0.146179      0.033004
Pb       3.74634      0.03184      4.22431         0.027095     -0.272467      0.438822
Pb       3.78869     15.18285     16.95540         0.096117     -0.197209     -0.034635
Pb       0.00471      3.79774      4.21675        -0.131238     -0.049118     -0.034688
Pb       0.03041      3.82695     16.96068        -0.532549     -0.244956      0.518662
Pb      15.17573      0.02830      4.28735        -0.033621      0.074281     -0.300778
Pb       0.00198     15.16758     16.96500        -0.249726     -0.178905      0.411862
Pb       3.81343      3.80610      8.43462        -0.240722     -0.128227     -0.024087
Pb       3.79505     15.15365      8.52959        -0.269058     -0.111973     -0.330085
Pb       0.02485      3.73684      8.51473        -0.209234     -0.019506     -0.175835
Pb      15.12242     15.17804      8.46816         0.317528     -0.051327      0.489284
Pb       3.80286      3.72640     12.67050        -0.170127      0.276722      0.356457
Pb       3.79442      0.01901     12.75223        -0.174404     -0.496132     -0.137689
Pb      15.16637      3.78563     12.70466         0.175530      0.502178     -0.010944
Pb       0.00227     15.19865     12.75254        -0.056885     -0.564505     -0.413681
Pb       3.75902      7.59305      4.25270         0.388141     -0.157115     -0.216895
Pb       3.76106      7.59929     16.96702         0.197200     -0.289536      0.141971
Pb      15.16047      7.62550      4.25646        -0.019316     -0.041689     -0.242840
Pb      15.14679      7.55212     16.95516        -0.118221     -0.013661      0.057603
Pb       3.79090      7.57839      8.44123         0.544412      0.123197     -0.002977
Pb      15.15014      7.56645      8.47892        -0.144199      0.031738      0.024889
Pb       3.74559      7.56350     12.71591         0.286901     -0.239077     -0.261138
Pb      15.19727      7.56312     12.75382        -0.315692     -0.201623     -0.386472
Pb       3.71908     11.38248      4.25017         0.508273      0.362120     -0.184442
Pb       3.85274     11.38116      0.02135        -0.763999      0.381182     -0.087647
Pb       0.00177     11.39676      4.21254        -0.425402     -0.237512     -0.304153
Pb       0.01188     11.35715     16.92856         0.184317      0.463728      0.522697
Pb       3.74810     11.37789      8.50505         0.093661      0.154025     -0.432439
Pb      15.17588     11.36741      8.51765         0.103832      0.197605     -0.462314
Pb       3.77076     11.33815     12.69218        -0.014615      0.408378      0.403369
Pb      15.16674     11.28757     12.79333         0.007061      0.490450     -0.547068
Pb       7.57013      3.79556      4.23339         0.075135     -0.089866      0.116528
Pb       7.59917      3.78103      0.01720        -0.460383      0.052797     -0.415882
Pb       7.57350     15.15505      4.21535         0.367350      0.110220      0.315398
Pb       7.61533     15.16329     16.96763        -0.042392     -0.187642      0.307623
Pb       7.61076      3.72235      8.47502        -0.258302      0.146578     -0.362789
Pb       7.59532      0.00425      8.49223         0.041404      0.208559      0.209823
Pb       7.61526      3.75699     12.73278        -0.134425      0.038604     -0.130997
Pb       7.57864     15.16161     12.74452         0.001727      0.078194     -0.209056
Pb       7.60287      7.54638      4.18752         0.199360     -0.104667     -0.053303
Pb       7.61273      7.61620      0.00064        -0.116908     -0.017347      0.332969
Pb       7.58321      7.59486      8.43927        -0.396936     -0.246593     -0.380821
Pb       7.57168      7.61422     12.69365        -0.346359     -0.410615      0.107722
Pb       7.55502     11.36811      4.24662         0.277835      0.353192     -0.252397
Pb       7.55895     11.39918     16.96604         0.437167     -0.005654      0.360773
Pb       7.59227     11.40142      8.52542         0.365620     -0.119602     -0.575912
Pb       7.61027     11.38638     12.70394        -0.159379     -0.162232      0.364367
Pb      11.36569      3.84664      4.18778         0.445552     -0.310515      0.172122
Pb      11.35808      3.73493     16.96640         0.242099      0.378537     -0.178360
Pb      11.41237     15.17382      4.21213        -0.491463      0.185668     -0.308969
Pb      11.38993     15.19469     16.97135        -0.205204     -0.057323      0.239145
Pb      11.39228      3.78264      8.47452         0.365552     -0.017768     -0.105779
Pb      11.37465     15.19025      8.47886         0.026077      0.167375     -0.087925
Pb      11.35435      3.72381     12.72347         0.145835      0.572896      0.088170
Pb      11.38689     15.19891     12.69446         0.024253     -0.320134      0.004248
Pb      11.40042      7.54923      4.19557        -0.198469     -0.069334      0.248509
Pb      11.38238      7.59257     16.96641         0.530153     -0.266934     -0.249389
Pb      11.37089      7.57061      8.53059        -0.167836     -0.290385     -0.299494
Pb      11.38601      7.61186     12.77610         0.082554     -0.323338     -0.100461
Pb      11.37589     11.36182      4.21464        -0.065818      0.122823      0.222422
Pb      11.40773     11.38834     16.90984        -0.379697      0.127817      0.319405
Pb      11.38875     11.36550      8.49114        -0.600449      0.521174     -0.790958
Pb      11.34865     11.31593     12.65845         0.110913      0.410407      0.647781
Ti       1.90666      1.90499      2.27448        -0.942123      0.203510      0.047597
Ti       1.89093      1.92086     15.04696         0.040828     -1.168766     -0.289146
Ti       1.82043     13.35409      2.28762        -0.124147     -0.501115      0.318789
Ti       1.83531     13.29334     14.97853         0.698948     -0.747676      0.194283
Ti      13.26976      1.86989      2.23766         0.509337      0.717821      0.314103
Ti      13.28639      1.84833     14.97114         0.141448      0.542857      1.024025
Ti      13.22148     13.28531      2.23319         0.659014     -0.631487     -0.063189
Ti      13.21374     13.34578     14.90757         0.379957     -0.855329      1.540312
Ti       1.85182      1.87584      6.52229         0.722527     -0.218102      0.421230
Ti       1.85064     13.26082      6.45830         0.603718      0.951974      0.781292
Ti      13.33729      1.86083      6.44333        -0.910463      1.181497      0.746492
Ti      13.30505     13.27848      6.43049        -1.206215      0.037768      1.300760
Ti       1.85212      1.85954     10.79256         0.040894      0.262591      0.204525
Ti       1.88105     13.29593     10.70135        -0.849744      0.375820      0.815804
Ti      13.31308      1.90636     10.84803        -0.250607      0.065335     -0.583935
Ti      13.21789     13.28059     10.66389         0.896479      0.842446      1.965013
Ti       1.91469      5.75110      2.19735        -0.421685     -1.087194      0.893524
Ti       1.91818      5.60648     14.91189        -0.510790      1.337794      1.043367
Ti      13.31155      5.69410      2.21318         0.547150     -1.104431      0.369123
Ti      13.30889      5.57845     14.96894        -0.848863      1.134436      0.694652
Ti       1.91140      5.74993      6.49048        -0.519393     -1.633221      0.814361
Ti      13.34900      5.68638      6.49131        -1.311189     -0.260996      0.545463
Ti       1.87815      5.67760     10.67298        -0.701704     -0.218961      1.300142
Ti      13.21491      5.75862     10.70279         0.924711     -0.871323      0.622873
Ti       1.98394      9.51263      2.24907        -1.478341      0.432016      0.309225
Ti       1.89594      9.39669     14.97804        -0.392234      1.339500      0.998253
Ti      13.26484      9.47625      2.23054         0.876354      0.160476      0.075055
Ti      13.32220      9.54093     15.00207        -0.840243     -1.354062     -0.195759
Ti       1.85328      9.47760      6.47560         0.361655      0.361351      0.394597
Ti      13.23554      9.48337      6.53068        -0.040894      0.213525      0.249156
Ti       1.89065      9.50360     10.72688        -0.457390     -0.367079      0.252467
Ti      13.20284      9.52132     10.71511         1.011704     -0.990033      0.625480
Ti       5.68428      1.90590      2.30709         0.424534      0.437373     -0.252100
Ti       5.72567      1.84000     14.92724        -0.349066      1.204978      0.773303
Ti       5.64386     13.34951      2.30997         0.540240     -0.898538     -0.050712
Ti       5.72891     13.22824     14.98685        -1.103608      0.150295     -0.358796
Ti       5.66085      1.81844      6.49583         0.584788      0.269389      0.846778
Ti       5.70513     13.28728      6.52574        -1.036842     -0.188542      0.151578
Ti       5.62141      1.87279     10.74326         1.182260     -0.427314      0.543357
Ti       5.65048     13.27428     10.77268         0.237020      0.467001      0.559203
Ti       5.70041      5.71096      2.18894        -0.362254     -0.408320      1.662604
Ti       5.70535      5.72027     14.94572        -0.383195     -0.961075      0.877818
Ti       5.64452      5.63644      6.39706         0.904930      0.722720      1.020710
Ti       5.63362      5.63266     10.71019         0.263537      0.979593      0.747911
Ti       5.81072      9.50977      2.20657        -1.468644     -0.550432      1.117365
Ti       5.64439      9.45405     15.05603         0.721167      0.397823     -0.348427
Ti       5.66271      9.52635      6.44353         0.062527     -0.855441      0.650350
Ti       5.66682      9.51288     10.75838        -0.298401     -1.250701      0.717471
Ti       9.45095      1.88759      2.22240         0.559102     -0.798021      0.703426
Ti       9.45556      1.89394     15.00776         0.769375     -0.087254      0.550657
Ti       9.47532     13.28673      2.22740        -0.679407      0.066164      0.235677
Ti       9.48896     13.24857     14.97459        -0.095936      0.194929      0.465529
Ti       9.52320      1.93978      6.46318        -0.260395     -0.421814      0.306714
Ti       9.40379     13.37717      6.43487         1.284827     -1.302538      0.852232
Ti       9.47456      1.84807     10.74953        -0.034933      0.527879      0.040631
Ti       9.43731     13.27715     10.77511         0.272022     -0.166417      0.241194
Ti       9.50959      5.64392      2.19099        -0.204068      0.690618      0.664639
Ti       9.37653      5.75071     14.97685         2.005813     -1.046608      0.385708
Ti       9.52243      5.69763      6.50406        -0.397937      0.265468     -0.424929
Ti       9.44459      5.66454     10.72110         0.279186     -0.116435      0.289306
Ti       9.51834      9.51038      2.18292        -0.031630     -0.134596      0.997645
Ti       9.45240      9.42764     14.97797         0.425638      0.811734      0.543036
Ti       9.48704      9.45058      6.42806        -0.561636      1.262248      0.759136
Ti       9.41777      9.43650     10.72610         0.508865      0.009119      1.194649
O       1.93038      1.84033      0.51208        -0.096759     -0.055192     -0.827223
O       1.88325      1.91706     13.28452         0.092003     -0.497391     -0.404328
O       1.82995     13.36271      0.52979         0.281482      0.007580     -0.348616
O       1.87331     13.30549     13.19538        -0.069399     -0.097801      0.158694
O      13.33472      1.88894      0.48434        -0.066730     -0.019290     -0.405560
O      13.30176      1.93201     13.21516        -0.163909     -0.193689     -0.552656
O      13.27000     13.21389      0.47991        -0.228671      0.122897     -0.583172
O      13.22157     13.33534     13.20216         0.174565     -0.052047     -1.173409
O       1.83306      1.83183      4.76477         0.290207      0.231143     -0.245503
O       1.74148     13.25830      4.70762         0.424837      0.158086     -0.507567
O      13.42151      1.97806      4.70523        -0.774394     -0.572968     -0.440435
O      13.16257     13.26637      4.68619         0.245991      0.088229     -0.529423
O       1.73933      1.82586      9.08078         0.358536      0.413357     -1.952210
O       1.91328     13.29255      8.96342        -0.167842     -0.334521     -0.956710
O      13.25168      1.89711      9.08750         0.436427      0.140749     -0.616700
O      13.20404     13.47824      8.94373         0.131041     -0.822606     -0.593600
O       1.97048      5.80939      0.44166        -0.308066     -0.435756     -0.291356
O       1.76393      5.74188     13.20274         0.669348     -0.295734     -0.869589
O      13.46640      5.61903      0.46311        -0.326967      0.172769     -0.609613
O      13.18789      5.54830     13.23098         0.407949      0.606939     -0.711456
O       1.93142      5.67320      4.76679         0.133074      0.055063     -1.113792
O      13.20445      5.71898      4.74649         0.053776     -0.038619     -0.721927
O       1.93311      5.64218      8.90886        -0.308181      0.275855     -0.167674
O      13.30677      5.74990      8.93163         0.171157      0.062746     -0.426505
O       1.86454      9.63199      0.49179         0.119790     -0.877052      0.130816
O       1.69844      9.63895     13.25025         0.929339     -0.523539     -0.958992
O      13.34630      9.33225      0.46479        -0.206110      0.876320     -0.263408
O      13.20832      9.44319     13.21960         0.422661      0.270839     -0.115015
O       1.72190      9.36827      4.73324         0.833653      0.518251     -0.562218
O      13.21784      9.54664      4.79767         0.000000     -0.339971     -1.062574
O       1.91317      9.60841      8.96158        -0.198797     -0.446609     -0.371947
O      13.23353      9.47907      8.95302         0.204732      0.030168     -0.591328
O       5.71731      1.99596      0.55203         0.084452     -0.069934     -0.724667
O       5.68823      1.92994     13.16503        -0.029060     -0.334011     -0.063063
O       5.66560     13.31833      0.56032        -0.080781     -0.250496     -1.092472
O       5.62037     13.22002     13.20933         0.310671      0.087927      0.236182
O       5.73187      1.78375      4.75253        -0.413883      0.285875     -0.758206
O       5.64541     13.25224      4.78590         0.133956      0.148703     -1.163502
O       5.77898      1.73379      9.01539        -0.360026      0.610986     -0.698978
O       5.72011     13.30584      9.03709         0.027822     -0.174259     -1.108618
O       5.74476      5.62252      0.46387        -0.295974      0.002644     -1.178202
O       5.68555      5.69919     13.21095        -0.109556     -0.043322     -0.603340
O       5.57664      5.57450      4.63967         0.330193      0.494874      0.170743
O       5.56063      5.71540      8.95868         0.305146     -0.061062     -0.078397
O       5.71702      9.41919      0.48234        -0.178858      0.213793     -1.406035
O       5.66746      9.52413     13.28901        -0.068829     -0.075933     -0.231155
O       5.76587      9.40565      4.70148        -0.199861      0.443445     -0.735333
O       5.63316      9.53274      9.03945        -0.152578     -0.198328     -1.274176
O       9.47739      1.79149      0.45714        -0.340118      0.566752     -0.550077
O       9.57296      1.83116     13.25329        -0.262211      0.005016     -0.579957
O       9.45298     13.19925      0.47082        -0.069868      0.310903     -0.789059
O       9.48828     13.36176     13.22768        -0.304774     -0.161153     -0.979471
O       9.52447      1.82249      4.73227         0.160367      0.191397     -0.814897
O       9.40217     13.32064      4.68358         0.456636     -0.043554     -0.292703
O       9.44690      1.81302      8.99033         0.092548      0.691774     -0.567283
O       9.28942     13.29508      9.03805         0.454581     -0.294066     -0.522797
O       9.45993      5.62713      0.44999         0.067015     -0.011818     -0.448052
O       9.42849      5.83405     13.23404         0.126606     -0.173671     -0.856374
O       9.54363      5.82885      4.72561        -0.027380     -0.612544     -0.593104
O       9.46902      5.70272      8.96082        -0.337403     -0.056461     -0.593890
O       9.60911      9.43895      0.44967        -0.337106      0.238287     -0.679578
O       9.46355      9.46645     13.20090        -0.061582     -0.423701     -0.066088
O       9.47483      9.64335      4.66787        -0.184060     -0.733888      0.237676
O       9.42709      9.42222      9.01086         0.029254      0.217362     -1.474581
O       3.79638      1.86729      2.60635         0.159763     -0.159161      0.439477
O       3.82655      1.99330     15.34130        -0.150576     -0.747830      0.122718
O       3.75960     13.32583      2.74419        -0.157949     -0.091750     -0.199584
O       3.76655     13.20625     15.35279         0.573399      0.422058      0.183157
O      15.17310      1.93365      2.73645         0.299375     -0.397987     -0.618994
O      15.18904      1.73038     15.40869        -0.060091      0.711443     -0.362915
O      15.13910     13.22202      2.62176         0.051224      0.330089      0.067857
O      15.12233     13.29765     15.33102         0.294690     -0.168984     -0.119028
O       3.80742      1.83045      6.95490        -0.512250     -0.078842     -0.194144
O       3.78215     13.38003      6.83752        -0.560291     -0.073379      0.259491
O      15.19099      1.83223      6.88934        -0.105752      0.982696      0.237767
O      15.13400     13.28334      6.91366         0.497271     -0.444182     -0.093794
O       3.74743      1.80887     11.14496         0.578848      0.286978      0.004976
O       3.80473     13.38873     11.04095        -0.676162     -0.447950      0.478965
O       0.00211      1.84846     11.17913        -0.514465      0.204860      0.415400
O      15.14018     13.28780     11.05432        -0.007873     -0.325859      0.009461
O       3.75039      5.53686      2.65729         0.383378      0.967394     -0.415073
O       3.79360      5.69389     15.36861         0.385363     -0.274501     -0.140851
O       0.01258      5.55586      2.65412         0.273008      0.764543     -0.308450
O       0.00324      5.64893     15.28489         0.413600      0.021901      0.415636
O       3.76816      5.71237      6.88248         0.770440     -0.183365     -0.065223
O       0.00105      5.56533      6.81149         0.097751      1.027702      0.381842
O       3.72324      5.59137     11.18524         0.758446      0.417702     -0.231335
O      15.18284      5.74366     11.14552         0.308988     -0.128845     -0.439967
O       3.80344      9.57369      2.61642        -0.321009     -0.671706      0.126800
O       3.77229      9.46947     15.47542         0.136225      0.224672     -0.463513
O      15.15636      9.42855      2.73348         0.097623      0.501870     -0.528813
O       0.01095      9.56086     15.31456        -0.305251     -0.137582      0.176813
O       3.75803      9.51131      6.83765        -0.380123     -0.485174      0.002245
O      15.17243      9.52686      6.83549        -0.176680     -0.359420      0.653904
O       3.78447      9.42431     11.21978        -0.794987      0.688248     -0.174004
O      15.18150      9.38801     11.08979        -0.049409      0.874913     -0.097747
O       7.60435      1.84931      2.77708        -0.137049      0.463382     -0.672426
O       7.61440      1.88774     15.30741        -0.551906     -0.074205      0.213559
O       7.54155     13.35109      2.69784        -0.021049     -0.436297     -0.243395
O       7.59838     13.20342     15.39720        -0.777139      0.401165     -0.148475
O       7.59991      1.94586      6.89457         0.013447     -0.143063     -0.046586
O       7.56537     13.27369      6.84863        -0.036505     -0.081898      0.226892
O       7.59658      1.94939     11.12072         0.004614     -0.197918      0.265235
O       7.53811     13.27480     11.25029         0.686138     -0.150425     -0.141010
O       7.60856      5.61927      2.56125        -0.133130      0.474116      0.287891
O       7.57282      5.74080     15.34221        -0.443021     -0.073782      0.279771
O       7.56470      5.69177      6.84564        -0.281925     -0.086165     -0.034374
O       7.56627      5.59078     11.19150        -0.490449      0.465919     -0.596732
O       7.61225      9.47000      2.54836         0.516510     -0.320323      0.287594
O       7.59333      9.46565     15.45174        -0.133095     -0.281838     -0.263266
O       7.52183      9.46598      6.94163         0.735030      0.445661     -0.296007
O       7.54917      9.37697     11.08865        -0.023429      0.662989      0.175654
O      11.36296      1.86779      2.52597         0.292056     -0.028963      0.449634
O      11.39081      1.89404     15.46610        -0.283251     -0.221585     -0.447529
O      11.33253     13.29336      2.51213         0.525786      0.017085      0.605158
O      11.33003     13.23999     15.29753         0.234709      0.402657      0.466523
O      11.41261      1.97821      6.92957         0.133375     -0.777043     -0.346013
O      11.38920     13.36158      6.97205        -0.269420     -0.274727     -0.582761
O      11.42671      1.96522     11.10372        -0.710067     -0.512513      0.381275
O      11.34495     13.31759     11.17565        -0.154396     -0.149661     -0.459136
O      11.40205      5.60468      2.57111        -0.100227      0.572661     -0.049119
O      11.42211      5.68443     15.28248        -0.295573      0.199989      0.593106
O      11.35350      5.77189      6.92896         0.515106     -0.623730      0.118174
O      11.36951      5.72108     10.97458        -0.182086      0.026222      0.521193
O      11.36775      9.53379      2.61033         0.313734     -0.447972      0.019980
O      11.37727      9.34358     15.32880        -0.056474      0.368381      0.051079
O      11.32948      9.54744      6.87673        -0.274762      0.015034      0.174132
O      11.36311      9.50312     11.11573        -0.299735     -0.759552     -0.127682
O       1.95975      3.75064      2.53364        -0.446228      0.607053      0.334518
O       1.79531      3.77435     15.29280         0.492580     -0.212759      0.482313
O       1.81035      0.03821      2.78040         0.291153     -0.745012     -0.499319
O       1.92449     15.15429     15.45673         0.117403      0.307036     -0.459931
O      13.30378      3.78424      2.63317        -0.367030     -0.088337      0.045096
O      13.26744      3.71089     15.44409         0.532589      0.231062     -0.200061
O      13.28534     15.15511      2.53135        -0.038748      0.472219      0.545883
O      13.23325     15.18173     15.35830        -0.229511      0.077836     -0.044411
O       1.99011      3.77081      6.89099        -0.463498     -0.259504      0.070067
O       1.78903     15.16061      6.87449         0.381178      0.285277      0.001518
O      13.26827      3.82355      6.82443         0.002124     -0.582552      0.460019
O      13.37014      0.02168      6.82305        -0.724904     -0.353393     -0.268644
O       1.89366      3.76931     11.12860        -0.270251      0.293299     -0.063852
O       1.83100     15.17586     11.04007         0.222902     -0.291270      0.894508
O      13.37920      3.86917     11.17904        -0.476100     -0.718672     -0.422424
O      13.25891     15.16994     11.14986         0.030868      0.311618      0.178003
O       1.82292      7.57477      2.72930         0.668749      0.357702     -0.675467
O       1.99751      7.54956     15.30181        -0.707153      0.383110      0.005594
O      13.31203      7.53916      2.56567        -0.290755      0.601143      0.390068
O      13.44916      7.61689     15.42817        -0.738941     -0.653041     -0.635738
O       1.90083      7.57091      6.84497        -0.416910      0.884761      0.375324
O      13.07263      7.61001      6.86089         1.526041     -0.116507      0.144468
O       1.91197      7.56152     11.10611         0.141120      0.521413     -0.162198
O      13.31777      7.59724     11.12523        -0.489725      0.316893      0.093667
O       1.87924     11.44188      2.61240        -0.004630     -0.897851      0.348257
O       1.84792     11.35875     15.47354         0.355486      0.674689     -0.547704
O      13.20832     11.34761      2.64117         0.321015      0.112605     -0.202984
O      13.08118     11.41354     15.27876         1.123939     -0.472576      0.060147
O       1.92866     11.41449      6.77741        -0.318460     -0.750992      0.427887
O      13.25053     11.40370      6.87197        -0.015092      0.095433      0.419775
O       1.87778     11.40393     11.07823         0.151935     -0.507165      0.263152
O      13.16766     11.37406     11.08118         0.614676      0.231936     -0.198710
O       5.73843      3.83443      2.69115        -0.208737     -1.035481     -0.118398
O       5.75465      3.77413     15.33098         0.040541      0.296756      0.103314
O       5.70177      0.01288      2.48441        -0.257249      0.024681      0.796615
O       5.78733     15.15546     15.34148        -0.604531      0.161072     -0.134686
O       5.68853      3.76859      6.88309        -0.322436      0.006802     -0.035189
O       5.70616     15.16854      6.95690         0.142975      0.119816     -0.234555
O       5.68506      3.75531     11.06160        -0.425541      0.211858      0.132618
O       5.72922      0.00116     11.15602        -0.023969     -0.239077      0.345077
O       5.56349      7.56127      2.59236         0.449843      0.084085      0.089512
O       5.77009      7.60691     15.43246        -0.719933     -0.628318     -0.233896
O       5.66530      7.58962      6.78117        -0.301374     -0.399060      0.311226
O       5.55635      7.57368     11.15997         0.536382     -0.638787     -0.193145
O       5.70855     11.32368      2.56968        -0.145884      1.260557      0.393142
O       5.69702     11.35552     15.43108        -0.019837      0.214105     -0.002035
O       5.48812     11.38102      6.84680         1.037648      0.353346      0.182252
O       5.69346     11.36204     11.10939        -0.186309      0.406040      0.257986
O       9.53264      3.75856      2.61826        -0.503408      0.234176     -0.053908
O       9.44895      3.83619     15.28033         0.124709     -0.764510      0.306238
O       9.49817     15.17806      2.61833        -0.099279      0.371752      0.036772
O       9.42611     15.14740     15.43999         0.284990      0.352571     -0.337775
O       9.54009      3.82657      6.72061        -0.299998     -0.374604      0.708144
O       9.48944      0.01496      6.80276        -0.112832      0.117571      0.320598
O       9.57255      3.77508     11.11381        -0.516118      0.249164      0.169341
O       9.45080     15.17283     10.96495         0.094717      0.206292      0.998338
O       9.47645      7.59486      2.61444         0.154650     -0.275635     -0.210392
O       9.49758      7.55518     15.55033        -0.307513      0.541378     -0.748064
O       9.47439      7.58564      6.73900        -0.282221      1.236023      0.627194
O       9.42966      7.55827     11.10036         0.228978      0.064774      0.145743
O       9.42361     11.42741      2.58864        -0.025454     -0.838487      0.121700
O       9.35558     11.34824     15.31693         0.934698     -0.417978     -0.009502
O       9.44292     11.44197      6.89657         0.040545     -0.543336      0.104629
O       9.54169     11.33582     11.13141        -0.881942      0.408410     -0.161847
