  # total energy = -7864.16439408 
CRSYTAL
PRIMVEC
    15.010000000000000    0.0000000000000000    0.0000000000000000
     0.0000000000000000   15.010000000000000    0.0000000000000000
     0.0000000000000000    0.0000000000000000    16.400000000000000
PRESSURE
18.3542 18.4837 5.94686 0.167842 0.067542 -0.047759
PRIMCOORD
320 1
Pb       4.01871      3.67679      4.35805        -1.385448     -0.039811     -0.952088
Pb       3.83435      3.78787      0.13451        -0.331311      0.031094      0.037290
Pb       3.69049      0.15098      4.15082        -0.342513     -0.220801     -0.156470
Pb       3.80942      0.02633     16.35600        -0.649695     -0.348224      0.052020
Pb      14.92447      3.62774      4.08275         0.548164      0.208306     -0.363421
Pb       0.02263      3.65660     16.35201         0.156991      0.645862      0.104492
Pb      14.95801      0.06224      4.23138         0.675878     -0.450799     -0.390914
Pb      14.88803     15.00902      0.05813         0.170831     -0.367712     -0.471585
Pb       3.82043      3.62934      8.33118        -0.589800      0.257492     -1.448847
Pb       3.85983     14.90041      8.30671        -0.886490     -0.223463     -0.653805
Pb       0.05527      3.75943      8.31497         0.147161     -0.171583     -0.569226
Pb      14.94878     14.88243      8.16868         0.422768      0.358446     -0.098928
Pb       3.83818      3.72668     12.21788        -0.775107      0.138844      0.499434
Pb       3.74414      0.01804     12.48918         0.123409     -0.484145     -0.687735
Pb       0.03158      3.67420     12.33620         0.053453      0.386152     -0.450475
Pb       0.02820      0.01769     12.29638        -0.275913     -0.240469     -0.196685
Pb       3.52584      7.57520      4.08725         0.965642     -0.407231     -0.345829
Pb       3.77834      7.41330      0.25078        -0.447320     -0.096281     -0.758293
Pb      14.92203      7.49264      4.12226        -0.392151     -0.017509     -0.430397
Pb      14.95661      7.53079      0.09854         0.076779      0.016678     -0.870945
Pb       3.69276      7.58359      8.04696         0.232721     -0.526477      0.139785
Pb       0.00385      7.53855      8.22256        -0.605167     -0.374346     -0.302293
Pb       3.77351      7.58968     12.29982        -0.398219     -0.388295      0.008034
Pb       0.05973      7.31905     12.32543        -0.269032      0.711122      0.047395
Pb       3.55863     11.22005      4.21296         0.633096      0.561955     -0.714502
Pb       3.73789     10.99652     16.31577        -0.651291      1.030323      0.118974
Pb      14.97106     11.20638      4.11548        -0.106421      0.559338     -0.513162
Pb      14.92972     11.38962      0.08426        -0.009734     -0.668130     -0.646296
Pb       3.67333     11.06203      8.25011         0.392082      1.376394      0.291964
Pb      14.98910     11.13606      8.15975         0.067614      0.487523      0.643261
Pb       3.76731     11.29856     12.36757        -0.514229      0.126226     -0.466539
Pb       0.01704     11.29625     12.33413         0.036562     -0.597456     -0.343740
Pb       7.50187      3.70276      4.17067         0.430091      0.012335     -0.381293
Pb       7.53616      3.86216     16.36556        -0.171506     -0.539817      0.040842
Pb       7.45844     14.86209      4.26331         0.502388      0.440790     -1.095791
Pb       7.30978     15.00020     16.38913         0.755257      0.097419     -0.220605
Pb       7.51535      3.64852      8.24481         0.286681      0.317894     -0.270327
Pb       7.51015     15.00640      8.29040        -0.212933     -0.161956     -0.019630
Pb       7.44639      3.73681     12.26007         0.529617     -0.511782      0.073018
Pb       7.59776     14.82606     12.43204        -0.322517      0.538635     -0.419669
Pb       7.26449      7.52781      4.00897         0.565411     -0.209620      0.193542
Pb       7.47754      7.45263      0.06490        -0.019196      0.241252     -0.603986
Pb       7.49336      7.48921      8.39053        -0.170044      0.510321     -0.663892
Pb       7.58285      7.41747     12.51860         0.159048      0.648211     -0.833330
Pb       7.46380     11.35181      4.10002        -0.146917      0.019722     -0.481514
Pb       7.53603     11.27395      0.09861        -0.742180     -0.227548     -0.194805
Pb       7.44377     11.20067      8.25641        -0.547554     -0.312356     -0.210658
Pb       7.54713     11.16448     12.35695         0.135884     -0.084101     -0.486705
Pb      11.14995      3.75940      4.15151         0.024422     -0.175461     -0.255446
Pb      11.32863      3.83609     16.38385        -0.433295     -0.412232     -0.356302
Pb      11.45257     14.97568      4.25669        -1.034280      0.519726     -0.551052
Pb      11.05067     14.89708      0.13264         0.643212      0.564384     -1.097992
Pb      11.46275      3.77270      8.12132        -0.843269      0.034494      0.235385
Pb      11.33796     14.86678      8.25531        -0.090973      0.503498     -0.481820
Pb      11.34701      3.71268     12.19420        -0.427397      0.369963      0.157886
Pb      11.30644      0.14496     12.29252        -0.346867     -0.741586      0.176912
Pb      11.21242      7.45719      4.20795         0.177032      0.020873     -0.716546
Pb      11.10088      7.45005      0.15108         0.614567      0.370355     -1.122580
Pb      11.05642      7.43851      8.18953         0.971395      0.041807     -0.012829
Pb      11.30614      7.30364     12.29710        -0.363483      1.054457     -0.053624
Pb      11.31234     11.29024      4.17651        -0.488164     -0.317111     -0.599273
Pb      11.20400     11.13270      0.07788         0.701293      0.053684     -0.814835
Pb      11.05660     11.17955      8.31350         0.394353     -0.081557     -0.207786
Pb      11.18121     11.32596     12.25314        -0.005230     -0.746460      0.243145
Ti       1.83489      1.86249      2.02094         1.232999      0.847413      0.213263
Ti       1.85107      1.88163     14.35560         0.101144     -0.013864      0.646358
Ti       1.82177     13.20135      2.10506         0.082241     -0.398367     -0.127658
Ti       1.78461     13.13818     14.40121         0.537159     -0.868861     -0.596463
Ti      13.09509      1.85759      2.01335         0.309718      0.481319      0.604073
Ti      13.10446      1.83916     14.42197        -0.796346      0.645340      0.069812
Ti      13.08080     13.13704      2.11925         1.078336      0.287430     -1.098624
Ti      13.09125     13.10841     14.24590        -0.707423     -0.252948      0.511867
Ti       1.84244      1.89312      6.19869        -0.096187     -0.587567      0.071609
Ti       1.87788     13.14945      6.20180         0.209317      0.251216     -0.038888
Ti      13.15308      1.87054      6.19031        -0.258076     -0.052200      0.455635
Ti      13.08405     13.03938      6.21095         0.817150      1.725778      0.127055
Ti       1.88828      1.82260     10.24742        -0.991514      0.842131     -1.183487
Ti       1.79777     13.18551     10.28547         0.642271     -1.535300      0.038381
Ti      13.16330      1.82190     10.20133        -0.516867      0.509243     -0.962631
Ti      13.09079     13.07276     10.30126         0.226097      0.085419     -0.291454
Ti       1.80373      5.60402      2.11755         0.366740     -0.533672     -1.343664
Ti       1.89761      5.58998     14.43828         0.268855      1.383417      0.207892
Ti      13.10775      5.58687      2.05100         0.353974      1.043392      0.193548
Ti      13.17233      5.63739     14.39837        -0.490418      0.481509     -0.219860
Ti       1.83541      5.58630      6.05089         0.356134     -0.507081      2.040647
Ti      13.14608      5.63882      6.13753        -0.533496      0.508961      1.184415
Ti       1.89272      5.63639     10.24971        -0.348402     -0.561783      0.201858
Ti      13.16736      5.59551     10.23368        -1.128536      1.110395     -0.970785
Ti       1.74657      9.39801      2.03767         0.745187      0.288426     -1.076441
Ti       1.77329      9.35118     14.30612        -0.234585      0.273259     -0.032293
Ti      13.06672      9.36706      2.06945        -0.089610     -0.270230      0.240111
Ti      13.11803      9.37157     14.33238        -0.052516     -0.037645      0.478018
Ti       1.76838      9.39445      6.14879        -0.320736     -0.296015      0.382648
Ti      13.01946      9.40187      6.21219         0.179517     -0.652220     -0.136028
Ti       1.83746      9.36491     10.32508        -0.277139      1.051889      0.311673
Ti      13.11214      9.36448     10.27264        -0.222694     -0.240018      0.405712
Ti       5.66859      1.83186      2.11380        -0.920601      0.923953      0.069784
Ti       5.61767      1.93985     14.41553         0.760433      0.310322     -1.180844
Ti       5.47791     13.18502      2.09926         1.045980     -1.641428     -0.465402
Ti       5.55968     13.08973     14.35810        -0.257718      0.432332     -0.556365
Ti       5.69299      1.81085      6.24174        -2.216496      0.828185      0.579628
Ti       5.58528     13.17329      6.13550        -0.880299     -1.108928      0.440447
Ti       5.57298      1.83940     10.29128         1.812324     -1.938547     -0.131068
Ti       5.55994     13.11437     10.28470        -0.086600     -0.506198      0.014114
Ti       5.60223      5.60372      2.11761        -0.558156     -0.295197      0.113899
Ti       5.56269      5.66010     14.26666         0.714245     -0.176854      1.114786
Ti       5.63163      5.64298      6.18259        -0.143926     -0.219945     -0.124328
Ti       5.61905      5.59607     10.24740        -0.219397      1.451551     -0.461691
Ti       5.56724      9.46066      2.07737        -0.527457     -0.131701     -0.561535
Ti       5.60721      9.36709     14.37629         0.574410     -0.356502      0.415974
Ti       5.57895      9.39685      6.12867         2.004030      0.256571     -0.311081
Ti       5.56945      9.36558     10.35463         1.478619     -0.204662     -0.386759
Ti       9.36585      1.86439      2.05786         0.246464      0.631629     -0.784277
Ti       9.40811      1.90002     14.36105        -1.435319     -0.520251      0.523953
Ti       9.39779     13.20947      2.07301        -2.020514     -0.973725      0.823295
Ti       9.36780     13.11778     14.46243         0.490398      0.733804     -0.958328
Ti       9.35485      1.85195      6.21642         0.945037      0.647601     -0.695886
Ti       9.35555     13.14115      6.23933         0.151142     -0.290681     -0.137248
Ti       9.39628      1.83014     10.25430        -0.853359      1.241128     -0.754587
Ti       9.31567     13.18665     10.22675         0.780549     -1.793537      0.822334
Ti       9.36473      5.63681      2.12674        -0.289797     -0.198736      0.731470
Ti       9.39298      5.59496     14.35481         0.183804      0.914372     -0.388489
Ti       9.30193      5.63887      6.20585         0.239603     -0.214100     -0.261633
Ti       9.33005      5.58038     10.24046         0.079293      0.322729      0.877547
Ti       9.32748      9.41221      2.14677         0.614312     -0.486816     -0.339870
Ti       9.37516      9.42484     14.42537         0.656053     -2.037907     -1.233867
Ti       9.32994      9.40169      6.07274        -1.086688     -0.588310      1.085296
Ti       9.38176      9.35519     10.29455        -0.503739     -0.195509      1.427000
O       1.90793      1.88907      0.16213        -0.391825     -0.501459      0.517328
O       1.81786      1.88959     12.50903        -0.171395      0.233610     -0.067891
O       1.75544     13.17186      0.30468        -0.127822      0.435388     -1.403325
O       1.95555     13.10751     12.50768        -0.606478      0.389365      0.530341
O      13.11078      2.00596      0.21550        -0.040573     -0.894019     -0.557559
O      13.13341      1.93515     12.58908        -0.036800     -0.160484     -0.955140
O      13.05475     13.22255      0.23023         0.377517     -0.110300      1.064956
O      13.04020     13.25444     12.39130         0.240913     -0.295358      1.321679
O       1.83616      1.88916      4.34875        -0.566113     -0.035506     -0.124235
O       1.96254     13.13987      4.36550        -0.220471     -0.447889     -0.271927
O      13.29096      1.79611      4.32196        -0.773320      0.558127      0.753881
O      13.05700     13.15625      4.34576         0.117284     -0.127229     -0.091442
O       1.86863      1.88405      8.35190         0.288073      0.047670      1.658051
O       1.74973     13.15340      8.48340         0.126313      0.000190     -0.787052
O      13.23231      1.89102      8.33079        -0.972399     -0.178105      1.008118
O      13.13119     13.24972      8.38160        -0.017163     -0.770576      0.784541
O       1.83865      5.72905      0.18333        -0.122154      0.072044      0.846864
O       1.87179      5.57794     12.60640         0.005311     -0.141178     -0.723982
O      13.08094      5.69179      0.21324         0.153037     -0.405023      0.313468
O      13.06500      5.72239     12.48416         0.404305     -0.995839      0.519426
O       1.89181      5.61470      4.31663        -0.075041      0.013966     -1.631930
O      13.08993      5.66287      4.33585        -0.102141     -0.037189     -0.398676
O       1.83498      5.66226      8.44175         0.318376      0.190261     -0.303182
O      13.13997      5.68058      8.32096         0.010786     -0.146373      1.390686
O       1.73169      9.30604      0.17821         0.778686      0.323579      0.643758
O       1.76811      9.42459     12.39584         0.248870     -0.067454      1.220682
O      13.05693      9.37952      0.27878        -0.277191      0.257728     -0.398545
O      13.17074      9.53168     12.57013         0.124751     -0.828517     -1.117893
O       1.80028      9.42323      4.30413        -0.015617      0.279508     -0.027166
O      13.12407      9.45546      4.37451         0.068844      0.007571     -0.255980
O       1.78640      9.38523      8.39238         0.620711     -0.546061     -0.010854
O      13.16606      9.42442      8.40435        -0.491121      0.032127      0.758332
O       5.64171      1.93670      0.30040        -0.420758     -0.592221     -1.453699
O       5.68221      2.01835     12.51679        -0.468437     -0.333534      0.279124
O       5.60690     13.19421      0.24281        -0.142880      0.079113     -0.594727
O       5.58422     13.06000     12.40029        -0.052629      0.024828      2.015375
O       5.62912      1.85225      4.42296         0.442715     -0.000016     -1.576595
O       5.44662     13.25610      4.29092         0.497571     -0.562310      0.526717
O       5.58092      1.78010      8.30620        -0.317001      0.636653      2.183862
O       5.61512     13.11912      8.40055         0.428317      0.350053      0.533861
O       5.59012      5.59344      0.28078         0.097860      0.534500     -0.572589
O       5.57965      5.65732     12.45386         0.182474     -0.491549     -0.231383
O       5.54558      5.56894      4.26116         0.519316      0.284959      0.736251
O       5.76227      5.63935      8.38048        -1.163675     -0.011780      0.258399
O       5.57434      9.46885      0.12472         0.085807     -0.540835      1.480656
O       5.67962      9.42947     12.53510        -0.063339     -0.007814     -0.515331
O       5.60647      9.54331      4.28132         0.035104     -0.564036      0.081085
O       5.60146      9.40683      8.48386        -0.360256     -0.569544     -0.830857
O       9.35412      1.80336      0.12153         0.212532      0.236703      2.220824
O       9.43290      1.86212     12.52964        -0.489754      0.258406     -0.973111
O       9.18049     13.15543      0.19384         1.095778      0.247117      0.857155
O       9.50563     13.20063     12.60565        -0.969861     -0.075580     -0.050711
O       9.22830      1.88297      4.32463         0.358332      0.230710      0.549917
O       9.34215     13.14505      4.42126         0.104878     -0.002912     -0.510647
O       9.35233      1.89663      8.33448        -0.072239     -0.059643      1.389726
O       9.25253     13.12292      8.41493         0.425423      0.214264     -0.655450
O       9.36196      5.59681      0.32820         0.165959      0.380725     -1.510242
O       9.38156      5.65219     12.48974        -0.227177     -0.162496      1.005163
O       9.30360      5.64815      4.36584         0.182369     -0.018953     -0.714202
O       9.44278      5.54902      8.44257        -0.816102      0.165138     -0.971942
O       9.33799      9.44547      0.23440         0.436064     -0.000837      0.431453
O       9.41920      9.47152     12.53541        -0.868001     -0.478258      0.517732
O       9.32748      9.47325      4.28619        -0.203281     -0.349165     -0.412321
O       9.42586      9.37872      8.49538        -0.039448      0.143066     -0.960543
O       3.77257      2.02798      2.39255        -0.221614     -0.552844     -0.213291
O       3.69161      1.79938     14.52431         0.658450     -0.236113      0.212472
O       3.68160     13.08619      2.25199        -0.113124     -0.759754      0.302913
O       3.64538     13.26384     14.59491         1.528476      0.239725      0.260791
O      14.97320      1.81872      2.34258         0.678830     -0.210900     -0.366598
O      14.96235      2.00631     14.62914         0.973427      0.040350      0.053334
O      14.97802     13.24415      2.36226        -1.019893      0.455412      0.276138
O      14.92714     12.93292     14.57478         0.309573      0.883415      0.096841
O       3.63707      2.03327      6.33708         2.028753      0.492064      0.376053
O       3.76622     12.98431      6.51880        -0.683772     -0.444593      0.024105
O      14.95831      1.67214      6.44874         0.432234     -0.217750     -0.293647
O      15.00082     13.38665      6.32668        -0.658934     -0.816911      0.072064
O       3.74293      1.86649     10.53290        -0.287659      0.799993     -0.047816
O       3.69666     13.06307     10.45619         0.325072     -0.139168     -0.018314
O      14.94414      1.82799     10.39016         1.724843     -0.383913      0.894815
O      14.95695     13.23011     10.58674         0.047227      0.461707      0.102582
O       3.64806      5.55896      2.13537         1.328815      0.375639      0.541859
O       3.81169      5.84144     14.63007        -1.327949      0.074351      0.196769
O      14.98464      5.77509      2.38433        -0.641668     -0.031429      0.098346
O       0.02715      5.62059     14.54045        -0.602683     -0.727207      0.202445
O       3.72180      5.35416      6.32386         0.240775      0.494796      0.791668
O      14.98449      5.86398      6.33425         0.570623      0.303105      0.078011
O       3.71745      5.50556     10.56770         0.674308     -0.297159     -0.394491
O      14.98279      5.69026     10.48253         0.687524      0.156912      0.239173
O       3.65938      9.45639      2.27024         0.655685      0.510319      0.092743
O       3.75875      9.32242     14.50472        -0.989246      0.010801      0.217578
O      14.94473      9.16588      2.26073        -0.081406      0.585193      0.661717
O      14.94161      9.51842     14.69759         1.271725      0.139833     -0.086708
O       3.77898      9.63779      6.39324        -1.820776     -0.732583     -0.075409
O      14.91009      9.26020      6.43338         1.560393      0.056105     -0.124581
O       3.73364      9.53341     10.54904        -0.741251     -0.528991      0.057993
O      15.00714      9.30976     10.48695        -0.512883     -0.331994     -0.230936
O       7.54979      1.76726      2.22525        -0.648890     -0.028726      0.456279
O       7.44975      2.12511     14.59962         0.594733     -0.331387      0.017801
O       7.42066     13.19487      2.40227         1.642118      0.247387      0.148229
O       7.42654     13.11969     14.60064         0.375351     -0.312100     -0.367360
O       7.44527      1.64775      6.45727         1.912541     -0.172958      0.043217
O       7.45098     13.38719      6.32058         0.325989      0.114425      0.231360
O       7.43996      1.74960     10.41758         0.856625      0.120737      0.059622
O       7.53490     13.23872     10.50978        -1.278951     -0.303050      0.299727
O       7.43863      5.79532      2.24365         0.792486     -0.239082      0.500618
O       7.47679      5.61435     14.59488         0.774512     -0.674256      0.057582
O       7.47896      5.85428      6.40188        -0.813601     -0.124282      0.059709
O       7.41788      5.76288     10.46762         0.844920     -0.444039      0.479795
O       7.46827      9.36281      2.21472        -0.059301     -0.273023      0.437902
O       7.48550      9.48609     14.57959         0.268030      0.498785      0.140007
O       7.50438      9.15547      6.46229        -0.863824      0.473454     -0.027937
O       7.51863      9.23515     10.41058        -0.602202      0.572009      0.591396
O      11.33884      2.01571      2.45565        -2.272072      0.091243     -0.143331
O      11.16912      1.86108     14.62879         2.488107     -0.584843      0.176043
O      11.23124     13.14804      2.38797        -0.605576     -0.340473     -0.205642
O      11.24478     13.21492     14.62004        -0.388793      0.381927      0.600681
O      11.26340      2.13024      6.35676        -0.152731     -0.111253     -0.288313
O      11.21969     12.93540      6.43210        -0.081284      0.271518      0.324570
O      11.24415      2.04308     10.45865         0.197274     -0.422916      0.095945
O      11.22843     12.98047     10.45194         0.270580      0.850565     -0.403773
O      11.25523      5.58762      2.38743        -0.479824     -0.073374      0.116979
O      11.28678      5.82218     14.65302        -0.849833     -0.415324     -0.005802
O      11.18977      5.50261      6.43872         0.968811     -0.058462     -0.331431
O      11.14907      5.55275     10.50406         2.174637     -0.308918      0.116533
O      11.27186      9.50360      2.45739        -1.554718     -0.257551     -0.239788
O      11.27987      9.28968     14.56328        -1.120820     -0.041663      0.894718
O      11.16566      9.52061      6.41154         0.433999      0.376109      0.059774
O      11.21863      9.54305     10.60102         1.708402     -0.566006     -0.547398
O       1.80744      3.72738      2.20500        -0.752518      0.726339      0.262675
O       2.00267      3.78753     14.71162        -0.248123     -1.090042     -0.291069
O       2.02440      0.04576      2.36340        -0.428266     -0.050884     -0.081966
O       1.70496     14.98447     14.51499        -0.375255      1.312212      0.375536
O      13.20748      3.76650      2.24681         0.287413      0.106658      0.543038
O      13.05930      3.73193     14.65197        -0.203835      1.195864     -0.047850
O      12.98526      0.04436      2.35429         0.274011     -0.846062     -0.223856
O      13.21948      0.02377     14.61058         0.103724     -0.826758      0.032221
O       1.65001      3.72958      6.42252        -0.534341      1.132689     -0.099912
O       2.00445     14.93699      6.41368         0.263534      1.516126      0.149511
O      13.34031      3.80424      6.44298        -0.190560     -0.748460     -0.444190
O      12.92461     14.96762      6.44760        -0.403209      1.047298     -0.377805
O       1.69778      3.71696     10.46480         0.536881      0.231906      0.257880
O       1.98076      0.03773     10.55965        -0.533976     -0.402058      0.325620
O      13.24917      3.76685     10.42038        -0.470681     -0.557628      0.518750
O      13.04422      0.01796     10.54450        -0.426299     -0.019585     -0.335860
O       1.96329      7.54087      2.36747        -0.286927     -0.618805      0.009612
O       1.74435      7.56371     14.51170         0.073669     -0.753064      0.007531
O      13.00701      7.52106      2.31499        -0.245926     -0.657938      0.443314
O      13.25840      7.48379     14.63960         0.110195      0.414953     -0.208067
O       2.03329      7.55819      6.25625         0.378186     -0.955228      0.572540
O      12.93677      7.59978      6.40680        -0.223241     -1.749068     -0.142022
O       1.96913      7.46218     10.61330         0.047314      0.620363     -0.367792
O      13.08067      7.46677     10.50755        -0.383981      1.031239     -0.017426
O       1.59953     11.28608      2.19706         0.412853     -0.748280      0.841565
O       1.92660     11.27486     14.53510         0.274695     -0.535693      0.435130
O      13.12677     11.29455      2.29855         0.528328     -0.259874      0.300777
O      13.03751     11.27344     14.61968        -0.536670      0.686746      0.259817
O       1.69625     11.21502      6.40810        -0.063665      0.808729      0.004036
O      13.23019     11.29087      6.40618         0.427704     -1.114146      0.264504
O       1.73842     11.27275     10.43600        -0.030594     -0.316091      0.124386
O      13.22748     11.24821     10.58754         0.113756      0.251832     -0.565794
O       5.67339      3.73442      2.21336         0.472380      0.237301      0.839369
O       5.51094      3.80491     14.63781        -0.404112      0.106882      0.008042
O       5.50636     14.98212      2.26577         0.029784      1.432054      0.256452
O       5.66128      0.03271     14.50984        -0.037290      0.004610      0.383289
O       5.80807      3.73398      6.34915        -0.039336      0.275095      0.234854
O       5.34955      0.04220      6.45851         0.100182     -1.591047     -0.287104
O       5.69498      3.67533     10.44290        -0.250864      1.210945      0.009246
O       5.53179     14.94815     10.62793        -0.098963      1.190032     -0.422010
O       5.53312      7.53527      2.33964        -0.392432      0.363204     -0.013036
O       5.81580      7.51168     14.59690        -0.277428      0.215043     -0.071424
O       5.39743      7.50665      6.22514        -0.398245      0.038079      0.550261
O       5.52469      7.49682     10.54133        -0.599402     -0.560474     -0.161074
O       5.76330     11.26538      2.21980        -0.471368      0.366134      0.366966
O       5.49319     11.30582     14.64809         0.001008     -0.455479     -0.260553
O       5.75696     11.26507      6.36470         0.672514      0.490391      0.118699
O       5.66045     11.20676     10.41587         0.614682      1.324357      0.526683
O       9.25485      3.78933      2.21462         0.097691     -1.312542      0.847276
O       9.56839      3.78446     14.59598        -0.565939      0.502777      0.283264
O       9.48235      0.01576      2.38277         0.130439     -0.125935     -0.324187
O       9.24555      0.03808     14.56731        -0.211603     -0.864627      0.314780
O       9.14120      3.75816      6.31240        -0.424858     -0.376953      0.353091
O       9.60766      0.03793      6.45667        -0.163450     -0.963004     -0.028955
O       9.23659      3.73517     10.49840        -0.501832     -0.725186      0.280202
O       9.39791     15.00242     10.53859         0.713755      0.798322      0.054863
O       9.37633      7.51247      2.23235         0.547151      0.722772      0.575061
O       9.27152      7.51065     14.66169        -0.165385     -0.319479      0.168573
O       9.46302      7.50657      6.47563         0.492036      0.461379     -0.229132
O       9.43226      7.46491     10.51789         0.114303      0.429857     -0.150085
O       9.35518     11.26764      2.29785        -0.272612      1.151140      0.025331
O       9.46306     11.22090     14.55361        -0.102699      2.019018      0.759789
O       9.23079     11.24701      6.49676        -0.510965      0.307996     -0.055344
O       9.39021     11.28931     10.56159        -1.028751      0.021781     -0.244466
