  # total energy = -7884.23474376 
CRSYTAL
PRIMVEC
    15.3600000000000000    0.0000000000000000    0.0000000000000000
     0.0000000000000000   15.3600000000000000    0.0000000000000000
     0.0000000000000000    0.0000000000000000    17.440000000000000
PRESSURE
0.388244 0.318666 1.82748 0.288463 0.344819 -0.01877
PRIMCOORD
320 1
Pb       3.80915      3.75649      4.38725         0.320252      0.305228     -0.133145
Pb       3.82973      3.73272     17.40511        -0.085616      0.179162     -0.290531
Pb       3.76349     15.29278      4.40940         0.039519      0.088566     -0.883146
Pb       3.71650     15.30240     17.33353         0.362461      0.051529     -0.358223
Pb       0.06693      3.73798      4.34657        -0.369207      0.132094     -0.134670
Pb       0.12983      3.85876      0.03777        -0.416778     -0.070416     -0.648492
Pb       0.06357     15.29647      4.29597        -0.221217      0.108792     -0.235575
Pb      15.19279     15.25918     17.42939         0.308358      0.094307     -0.031279
Pb       3.72488      3.84739      8.75090         0.058442     -0.022243     -0.742679
Pb       3.84671      0.02413      8.71306         0.118875      0.010180     -0.428551
Pb      15.18729      3.97731      8.70005         0.328776     -0.247623     -0.104640
Pb      15.19410      0.08809      8.77465         0.110260     -0.036711     -0.997007
Pb       3.79586      3.75937     12.93874        -0.034794     -0.275815      0.134331
Pb       3.70498     15.33285     12.89548         0.608783      0.253254      0.246724
Pb       0.04078      3.71226     13.12350        -0.487791      0.400989     -0.869457
Pb      15.35198     15.29772     13.02073        -0.285522      0.040460     -0.253356
Pb       3.83923      7.64264      4.31906         0.151300      0.112483      0.103968
Pb       3.71845      7.53728     17.37111         0.327220      0.548994     -0.061425
Pb       0.11823      7.79718      4.31395        -0.310677     -0.514288     -0.183462
Pb      15.19283      7.63326     17.38384         0.435160      0.272403     -0.142584
Pb       3.86266      7.71716      8.73166        -0.176033     -0.061254     -0.878927
Pb      15.34025      7.66298      8.71585         0.277990     -0.195731     -0.599544
Pb       3.78751      7.55433     12.98164         0.112032      0.891748      0.108613
Pb       0.00766      7.58898     13.14958        -0.259044      0.026141     -0.691082
Pb       3.75792     11.54232      4.32292        -0.085022     -0.191318     -0.299280
Pb       3.87824     11.48356     17.34524        -0.119315     -0.005086     -0.241566
Pb      15.31543     11.59435      4.29191         0.345501     -0.014390      0.140841
Pb      15.22142     11.53267     17.30991         0.250362     -0.223651     -0.095045
Pb       3.81799     11.53627      8.72343         0.627978     -0.127459     -0.232831
Pb      15.26701     11.41503      8.75711        -0.168886      0.444030     -1.046375
Pb       3.85172     11.43659     12.97270         0.269148     -0.024341      0.270154
Pb       0.14548     11.51882     13.08801        -0.297487     -0.009151     -0.313886
Pb       7.72921      3.66422      4.36754        -0.488065      0.583472     -0.477095
Pb       7.56845      3.82298      0.01132         0.318087     -0.167446     -0.383358
Pb       7.75834     15.30242      4.40167        -0.533112     -0.401991     -0.295091
Pb       7.54689     15.33118     17.40070         0.275955      0.115590     -0.337103
Pb       7.65380      3.86587      8.66122        -0.034192     -0.356008     -0.276313
Pb       7.65086     15.31471      8.65249        -0.026423      0.327407     -0.001494
Pb       7.81660      3.97009     13.12400         0.079388     -0.375195     -0.735328
Pb       7.56097      0.18332     12.98525         0.665718     -0.267007     -0.447728
Pb       7.70243      7.54230      4.31299        -0.143611      0.387251     -0.297036
Pb       7.53256      7.71620     17.42830         0.306231     -0.093439     -0.566584
Pb       7.65833      7.73409      8.69028         0.155609      0.101641     -0.636044
Pb       7.60373      7.66949     12.96710         0.475905      0.020200      0.049499
Pb       7.70779     11.43358      4.38686         0.040847      0.070833     -0.468288
Pb       7.58274     11.54617     17.40309         0.305849     -0.108362     -0.059730
Pb       7.63799     11.54969      8.67746         0.286701     -0.049480     -0.721074
Pb       7.72700     11.52042     12.97786         0.082105      0.168347     -0.180972
Pb      11.44427      3.73322      4.28104         0.596499      0.381782     -0.049718
Pb      11.63358      3.80454      0.07584        -0.213929     -0.089150     -0.756003
Pb      11.52624     15.22954      4.33003         1.049677      0.355568      0.530536
Pb      11.34931     15.24946      0.04628         0.396203      0.425010     -0.872787
Pb      11.39910      3.98589      8.69326         0.652366     -0.390085     -0.675001
Pb      11.45699     15.34706      8.67563         0.446995      0.302890     -0.442853
Pb      11.59308      3.71303     13.23137         0.247364      0.059017     -0.809847
Pb      11.53757     15.33891     13.00628        -0.132748      0.018000      0.267878
Pb      11.47456      7.67670      4.22504         0.248335     -0.115371     -0.389553
Pb      11.49220      7.62789      0.05281        -0.076440     -0.000964     -0.709389
Pb      11.52548      7.69995      8.68835         0.057301     -0.318849     -0.355765
Pb      11.42574      7.62424     13.11394         0.466673     -0.093030     -0.382722
Pb      11.56069     11.43226      4.29140        -0.113186      0.164684     -0.083402
Pb      11.33950     11.45571     17.40376         0.293683      0.226626     -0.474979
Pb      11.57639     11.51937      8.69639        -0.276475      0.221333     -0.606287
Pb      11.53475     11.46289     13.02823         0.015059      0.082769     -0.394234
Ti       1.90615      1.93357      2.25143        -0.340299     -0.774975      1.991841
Ti       1.89571      1.87369     15.38945        -0.152065      0.323814      0.322135
Ti       1.91180     13.38085      2.20418        -0.740987      0.814199      1.314158
Ti       1.90917     13.42813     15.33784         0.066278      0.417638     -0.422028
Ti      13.43262      1.87778      2.29329         0.002985     -0.571174      1.052615
Ti      13.42322      1.87004     15.50454        -0.722753      0.470939     -0.177876
Ti      13.35164     13.32166      2.25898         1.137149      1.465288      0.828249
Ti      13.41549     13.47513     15.27826        -0.960231      0.106283      0.853033
Ti       1.90186      1.88425      6.63120        -0.971409      0.034720      0.460329
Ti       1.96279     13.38011      6.73696        -1.702334      1.086273     -0.079809
Ti      13.48559      2.00688      6.64883        -0.540505     -0.796910      0.737764
Ti      13.46965     13.45080      6.63914         0.190333      0.271240      2.241903
Ti       1.85908      1.89922     10.93953        -0.007038      1.019731      0.367514
Ti       1.97234     13.42848     10.90202        -0.717121     -0.003413      2.294593
Ti      13.43762      1.89674     11.00552        -0.421910      0.852780      0.561940
Ti      13.50327     13.37408     11.01718        -0.952324      0.515997      0.996691
Ti       1.94663      5.74487      2.30463        -0.835956      0.046601      1.469420
Ti       1.90590      5.75217     15.33201        -0.503177     -0.361303      1.349608
Ti      13.49376      5.69995      2.28338         0.177347      0.752463      1.232226
Ti      13.46275      5.77644     15.30993        -0.587528     -0.698670      1.058289
Ti       1.94477      5.71296      6.56034        -0.337793      0.523759      1.359594
Ti      13.49128      5.83640      6.57606        -0.453174     -1.213443      1.171926
Ti       1.97774      5.78007     11.01113        -2.490026     -0.491884      1.270881
Ti      13.43955      5.78426     11.08377         0.587836     -0.872945     -0.088085
Ti       1.97969      9.57823      2.19960        -0.617804      0.622458      0.641100
Ti       1.97492      9.57727     15.40905        -0.647435      0.090135      0.849946
Ti      13.53023      9.52443      2.28199        -0.631882      0.352514      0.985681
Ti      13.40120      9.61029     15.35413         0.608014     -0.091967      0.903718
Ti       1.95801      9.60937      6.77612        -0.173918     -0.584183      1.049059
Ti      13.44601      9.55003      6.60084         0.783839      1.287986      0.105450
Ti       1.94746      9.62519     10.97963         0.032496     -0.791081      0.639089
Ti      13.53502      9.56489     11.08680        -0.739680     -0.808279      0.896019
Ti       5.70283      1.83721      2.36679         0.037022      0.407887      2.233398
Ti       5.76768      1.91400     15.24024        -0.430554     -0.226132      0.799921
Ti       5.72005     13.36960      2.30027         0.320912      0.493693      1.227094
Ti       5.75430     13.44714     15.22518        -0.380730      0.265586      0.777988
Ti       5.70432      1.94038      6.61414         0.365235      0.224318      0.922629
Ti       5.71348     13.46287      6.60382         0.702991     -0.028269      1.287189
Ti       5.73538      1.97754     10.98646         0.962859     -0.902852      0.797648
Ti       5.78541     13.42730     11.02137         0.270716      0.510877     -0.141016
Ti       5.74931      5.69769      2.29438         0.071540     -0.348209      1.243248
Ti       5.73393      5.74391     15.38825        -0.067620      0.000478      1.239298
Ti       5.76367      5.79649      6.71807        -0.316601     -0.444608      0.738762
Ti       5.76001      5.72050     11.00795         0.776120     -0.227947     -0.119611
Ti       5.75507      9.53931      2.33134         0.565617      0.375850      1.941161
Ti       5.75724      9.68304     15.31422         0.045569     -1.026505      0.485810
Ti       5.79403      9.61197      6.64620         0.409872     -0.211114      0.547133
Ti       5.81703      9.58029     11.02649        -0.534350      0.404035      0.154296
Ti       9.57443      1.85525      2.36408         1.030114      0.280425     -0.655454
Ti       9.59476      2.00229     15.41248         0.569859     -1.211411      0.697588
Ti       9.58886     13.46924      2.26707        -0.493699     -0.736231      0.748554
Ti       9.46798     13.47046     15.31229         1.280427      0.525623      0.486336
Ti       9.57788      1.92985      6.65572         0.755457     -0.269364      1.694230
Ti       9.64504     13.43599      6.65762         0.090719     -0.356242      0.689975
Ti       9.66877      1.98449     11.00518        -1.040974     -0.662683      0.553977
Ti       9.61213     13.46485     11.05429         0.289590      0.302396      0.631834
Ti       9.60470      5.72611      2.20178        -0.250166      0.418901      0.478415
Ti       9.57823      5.77928     15.47454         0.460166     -0.048849      0.855033
Ti       9.58301      5.77294      6.57904         0.008743      0.089903      2.202915
Ti       9.60903      5.79115     10.92240         1.038408     -0.217670      1.607398
Ti       9.59212      9.67205      2.30708         0.065702     -0.682845      0.277075
Ti       9.57113      9.57567     15.34481        -0.012156      0.489963      1.134809
Ti       9.73581      9.54838      6.58320        -1.636761      0.594413      0.908365
Ti       9.66534      9.56074     10.93346         0.413377      0.929049      0.500429
O       1.89940      1.97921      0.54083         0.218472     -0.098215     -1.736631
O       2.04329      1.88884     13.63624        -0.592868      0.092181     -0.432387
O       1.85425     13.48467      0.47625         0.229802     -0.273391     -1.013770
O       1.88283     13.51215     13.51911        -0.008495     -0.159849      1.070755
O      13.27949      1.97241      0.56118         0.655923     -0.041086     -0.667717
O      13.34571      1.86392     13.73754         0.198462      0.158385     -0.301231
O      13.49437     13.39134      0.52947         0.012325     -0.221970     -0.796355
O      13.51530     13.57223     13.51976         0.131296     -0.242169      0.005242
O       1.79916      1.90520      4.84741         0.425107     -0.265929      0.086704
O       1.92923     13.34248      4.94586         0.603247      0.118801      0.035822
O      13.57173      1.93361      4.89484        -0.275243      0.085026     -0.199265
O      13.39628     13.42516      4.93779         0.012268     -0.024264     -1.940277
O       1.88675      2.01503      9.20791         0.224654     -0.173666     -0.469562
O       1.85270     13.37649      9.21330         0.196207     -0.075208     -0.950319
O      13.46696      1.94004      9.24764        -0.030039      0.285384      0.165663
O      13.46483     13.41119      9.27384         0.077938     -0.158211     -0.210623
O       1.97670      5.63914      0.59021        -0.095157      0.407721     -1.455885
O       1.82538      5.69389     13.59645         0.534309      0.290043     -0.874845
O      13.42762      5.82079      0.53190         0.041628     -0.228878     -0.586933
O      13.45928      5.90120     13.57234         0.084208     -0.746569     -0.439347
O       1.86374      5.78041      4.82757         0.321804      0.204621     -0.817122
O      13.42840      5.82145      4.87125        -0.073489      0.011130     -0.891660
O       1.92090      5.62091      9.31120         0.158988      0.431835     -1.293098
O      13.51021      5.70892      9.27338        -0.324120      0.346653      0.077091
O       2.05490      9.69769      0.46143        -0.054335     -0.248911      0.023798
O       2.01198      9.58673     13.66992         0.023875      0.052531     -0.595271
O      13.53244      9.57591      0.54334        -0.224915      0.006074     -1.215139
O      13.41530      9.58503     13.64080         0.167754      0.005608     -0.968725
O       1.98083      9.61665      5.07526         0.075892      0.262707     -2.030826
O      13.51145      9.63726      4.84504        -0.331189     -0.258568      0.125597
O       1.94951      9.54554      9.22211        -0.004493      0.364602     -0.278286
O      13.43114      9.52594      9.33836         0.194164     -0.047337     -0.715402
O       5.76725      1.82220      0.66422        -0.061462      0.034315     -1.484280
O       5.74582      1.91009     13.46884        -0.030380      0.316217      0.569130
O       5.77237     13.41065      0.56414        -0.109943      0.218217     -0.337738
O       5.85511     13.36021     13.50015        -0.202041      0.193383     -0.999617
O       5.68992      2.00547      4.85888         0.327915     -0.548843     -0.056290
O       5.68288     13.52814      4.87763        -0.201006     -0.304475     -0.991240
O       5.64924      1.89425      9.26073         0.045902      0.348576     -1.038511
O       5.80326     13.46146      9.25128        -0.100912     -0.185868     -0.014580
O       5.70749      5.77312      0.55728         0.093342     -0.088294     -0.743531
O       5.80950      5.66123     13.67692        -0.105901      0.047750     -1.646679
O       5.74828      5.84027      5.00088        -0.042046      0.160292     -1.186784
O       5.79830      5.66179      9.26290        -0.360564      0.376221     -0.186173
O       5.83691      9.63968      0.63466        -0.157082     -0.341854     -1.910700
O       5.76717      9.67002     13.58310         0.045256     -0.120417     -1.210604
O       5.75017      9.47176      4.90174         0.011233      0.264590     -0.282090
O       5.84275      9.67218      9.28578        -0.080488     -0.396770     -0.527857
O       9.47822      1.87176      0.61634         0.162963     -0.151228     -0.111900
O       9.64504      1.93879     13.65121        -0.009593      0.416258     -0.021653
O       9.55497     13.46606      0.50979        -0.070667     -0.182806     -0.241598
O       9.48942     13.51614     13.55574        -0.070930     -0.439238      0.259971
O       9.60584      1.84954      4.90542        -0.071043      0.269248     -0.645343
O       9.65202     13.49252      4.91408        -0.077197     -0.049255     -0.539465
O       9.49096      1.96874      9.26008         0.839617      0.247471     -0.079780
O       9.63659     13.41768      9.31918        -0.049298     -0.023275     -0.991733
O       9.58288      5.83840      0.43115        -0.135624     -0.187321      0.441055
O       9.52315      5.76575     13.70932        -0.164762      0.088196     -0.169535
O       9.68773      5.72452      4.89144        -0.302586     -0.038135     -2.256397
O       9.65927      5.78653      9.18966        -0.240559     -0.082046     -0.364848
O       9.61160      9.69959      0.53136        -0.146558     -0.154892      0.231871
O       9.62732      9.63452     13.60609        -0.266794     -0.190183     -0.311015
O       9.65771      9.59054      4.83376         0.114764      0.269386     -0.666150
O       9.76002      9.67156      9.15123        -0.239061     -0.459142      0.806474
O       3.79166      2.05885      2.80512         0.062642     -0.657837     -0.593301
O       3.80384      1.92659     15.74248         0.247881     -0.249612      0.316139
O       3.79473     13.34421      2.60655         0.612276     -0.013245      0.431377
O       3.88804     13.54053     15.61366        -1.172422     -0.205685      0.494331
O      15.33588      1.83862      2.65916         0.551503     -0.075667      0.026592
O      15.30081      1.96055     15.77475         0.855873     -0.072964      0.287954
O       0.04558     13.52897      2.81322        -0.590482     -0.566880     -0.632394
O      15.33519     13.48392     15.79607         0.530882     -0.207414     -0.313429
O       3.81791      1.97738      7.01346        -0.291902     -0.352800      0.148563
O       3.82589     13.49363      7.13483         0.528037     -0.326174     -0.010369
O       0.00918      1.93394      7.11339         0.061000      0.012838      0.009055
O      15.32756     13.35717      6.94282         0.677560      0.171612      0.594580
O       3.85642      1.88312     11.40918        -0.809896      0.249656     -0.118646
O       3.84655     13.59163     11.27634        -0.244537     -0.509870      0.081585
O      15.28643      1.94867     11.49031         1.198555      0.141737     -0.056485
O       0.02557     13.32531     11.43488         0.565528      0.182675     -0.148229
O       3.81793      5.57120      2.68477         0.461567      0.763788      0.306750
O       3.76126      5.81921     15.81881         0.443412     -0.594338     -0.341823
O      15.34629      6.00806      2.63517         0.184693     -0.893263     -0.010795
O       0.02744      5.72360     15.79443        -0.470171      0.165922      0.022914
O       3.80052      5.76900      7.11763         0.331935      0.226373      0.122260
O       0.02692      5.77646      7.06328        -0.499908      0.283843     -0.014405
O       3.83659      5.77355     11.42845         0.442961     -0.071039      0.024775
O       0.00849      5.69129     11.44456         0.832126     -0.029983      0.242688
O       3.87570      9.64144      2.74856        -0.768505     -0.072622     -0.117138
O       3.92800      9.54696     15.79637        -0.924597      0.302429      0.287415
O       0.03568      9.48058      2.65381         0.447145      0.575932     -0.012384
O       0.02620      9.50341     15.81579        -0.314474      1.052345     -0.245399
O       3.90581      9.55431      7.09498        -0.196655      0.183964      0.482258
O       0.02066      9.60322      7.09373        -0.661915      0.101712      0.326866
O       3.84425      9.56344     11.41505         0.265147     -0.396124      0.118586
O       0.08935      9.72943     11.48865        -0.212073     -0.348721     -0.222445
O       7.78226      1.75205      2.79033        -1.175182      0.064332      0.301610
O       7.66041      1.99047     15.68740        -0.609598     -0.105345      0.195159
O       7.68331     13.55101      2.72746         0.312201     -0.043575     -0.012101
O       7.58582     13.35935     15.80474         0.932714      0.387317     -0.124252
O       7.63956      1.91442      7.19881        -0.141390      0.009497     -0.931415
O       7.64156     13.48723      6.99093         0.451487     -0.218688      0.176692
O       7.73708      1.95692     11.35994        -0.135719      0.065625      0.428101
O       7.64454     13.46662     11.37607         0.962229     -0.463476      0.137612
O       7.66852      5.80490      2.64433         0.187214     -0.354735      0.067271
O       7.61161      5.61993     15.82344         0.286837      0.484289      0.154159
O       7.64793      5.89200      7.11513         0.602201     -0.584057     -0.076614
O       7.76769      5.74321     11.33448        -1.224911      0.188805      0.532987
O       7.69642      9.60306      2.76843        -0.221201     -0.251854      0.055870
O       7.61503      9.71380     15.76761         0.724171     -0.715888      0.106151
O       7.76395      9.59629      7.01792        -0.273541      0.274243      0.255013
O       7.70020      9.67465     11.38776         0.303965     -0.348594      0.037315
O      11.57068      1.96324      2.72524        -0.632204      0.451254      0.328394
O      11.48900      1.76028     15.95463        -0.595640      0.877859     -0.287143
O      11.51869     13.28682      2.65395        -0.020939     -0.259583      0.060262
O      11.49386     13.50193     15.69390        -0.248013     -0.269030      0.005990
O      11.55961      1.88010      7.08572        -1.028584      0.715798     -0.219574
O      11.55567     13.48606      7.04172        -0.522870      0.155553      0.462853
O      11.58708      1.94961     11.62897        -0.490606     -0.078011     -0.900385
O      11.58260     13.44503     11.54126         0.076320     -0.300230     -0.451739
O      11.49154      5.64686      2.54393        -0.023436      0.346924      0.451306
O      11.51908      5.85695     15.76277        -0.332842     -0.168774      0.095301
O      11.42565      5.73864      7.10359         1.274964      0.119883     -0.078693
O      11.53570      5.93840     11.34666        -0.801776     -0.215158      0.126211
O      11.54523      9.65142      2.63774        -0.417517      0.103156      0.251294
O      11.53908      9.59738     15.77499        -0.360800      0.046851      0.204401
O      11.55061      9.65466      7.03082         0.896956     -0.498808      0.054937
O      11.56647      9.37111     11.54172        -0.194164      1.031772     -0.603693
O       1.78026      3.85523      2.63613        -0.170481     -0.294913      0.323873
O       1.84030      3.85314     15.78882         0.566185     -0.267254      0.029089
O       2.01402     15.32592      2.63327         0.070405      0.466883      0.284963
O       1.85111     15.35899     15.79373         0.224608     -0.075811      0.071199
O      13.57338      3.85748      2.73882        -0.295553     -0.129514     -0.287255
O      13.31240      3.84265     15.79353         0.160269      0.196933     -0.012443
O      13.34222     15.28373      2.62462         0.174905      0.269671      0.210092
O      13.43456     15.35702     15.88814         0.198876     -0.666441     -0.054345
O       1.84453      3.84233      6.81027         0.488483     -0.272223      0.677891
O       1.85174     15.31592      7.12789         0.478553      0.606488     -0.263858
O      13.45028      3.90660      7.04367        -0.136922      0.038217     -0.007629
O      13.42258      0.07677      7.22433         0.416816     -0.792795     -0.463583
O       1.95375      3.79026     11.32769         0.264782      0.275515      0.810129
O       1.86778      0.05255     11.28461        -0.053889     -1.250001      0.257972
O      13.39604      3.87325     11.54560        -0.021806     -0.320015      0.061024
O      13.53120      0.00781     11.32862        -0.125043     -0.490360      0.178099
O       1.87800      7.73038      2.71179         1.454084     -0.268760     -0.238541
O       1.85884      7.73109     15.88588         0.611805     -1.188668     -0.391014
O      13.39227      7.70999      2.71330        -0.493696     -0.673170      0.000314
O      13.46087      7.62643     15.64291         0.160853      0.996060      0.875271
O       1.88142      7.67596      7.08361         0.377200     -0.096507      0.321700
O      13.41267      7.68976      7.06576        -0.015288      0.133268      0.121498
O       1.83544      7.71146     11.39866         0.608317     -0.389096      0.122283
O      13.59513      7.61605     11.53761         0.145541      1.313953     -0.197624
O       1.76471     11.51726      2.67617         0.809935     -0.789508      0.006234
O       2.03420     11.57623     15.75095        -0.394541     -0.382942     -0.144106
O      13.53963     11.49634      2.70279         0.019581     -0.353055      0.061165
O      13.48681     11.59887     15.62285        -0.051830     -0.957207      0.373246
O       2.00650     11.55795      7.25305        -0.237247     -0.906403     -0.300148
O      13.44631     11.51709      7.06462        -0.141346     -0.653175      0.280365
O       2.07500     11.49457     11.53190        -0.542580      0.835217     -0.926718
O      13.46331     11.41525     11.36467        -0.440584      1.123439      0.414721
O       5.83621      3.76101      2.78132         0.367187      0.611678     -0.165732
O       5.67238      3.75886     15.91780         0.084514      0.291255     -0.525515
O       5.76395      0.01209      2.86373        -0.730419     -0.610146     -0.333641
O       5.73299     15.34870     15.73390         0.500694      0.792932     -0.123139
O       5.73441      3.86014      6.91875         0.323161     -0.159622      0.718831
O       5.70189     15.35177      7.10587        -0.037271      0.570878     -0.300512
O       5.77837      3.86973     11.36373        -0.284617      0.044434      0.407132
O       5.83726      0.06393     11.38409        -0.329194     -0.659243      0.104848
O       5.74038      7.58765      2.79515        -0.267233      0.523115     -0.444276
O       5.72160      7.63562     15.65192         0.575169      0.317550      0.566985
O       5.83781      7.73458      7.24802        -0.732898     -0.250778     -0.164575
O       5.76375      7.62387     11.42284         0.163763      0.309996      0.172695
O       5.82821     11.48592      2.66000        -0.059458      0.515776      0.503185
O       5.74519     11.56281     15.75017        -0.489562     -0.267876      0.114947
O       5.77106     11.52821      6.98034        -0.129366      0.127302      0.251831
O       5.71035     11.47567     11.29948        -0.072175      0.765305      0.594600
O       9.51760      3.81768      2.74582         0.155124     -0.087127     -0.143434
O       9.63726      3.84938     15.90395         0.024514      0.065889     -0.312001
O       9.95683     15.27270      2.76134        -1.828155      0.743681     -0.803280
O       9.52999      0.00530     15.83953        -0.563013     -0.465845     -0.109280
O       9.53139      3.84571      7.01721        -0.061831     -0.182790      0.132200
O       9.60656      0.04007      7.08966        -0.201842     -0.356803      0.110624
O       9.63372      3.86699     11.48686         0.459610      0.566605     -0.287870
O       9.72057      0.01126     11.37979        -0.379070      0.314884      0.029049
O       9.57820      7.69810      2.68582         0.451558     -0.507015     -0.187496
O       9.59723      7.72318     15.88099        -0.691074     -0.050696     -0.277228
O       9.65628      7.67549      6.89901         0.072961      0.368967      0.522527
O       9.54362      7.75315     11.39559        -0.350231     -1.098651     -0.019823
O       9.56165     11.56195      2.73816        -0.165468     -0.231189      0.065290
O       9.62100     11.49624     15.82806        -0.281582      0.465260     -0.402032
O       9.71990     11.55025      7.00378        -0.520136      0.002634      0.116852
O       9.73734     11.51249     11.39450        -0.356847     -0.433682      0.242466
