  # total energy = -7865.69517489 
CRSYTAL
PRIMVEC
    15.010000000000000    0.0000000000000000    0.0000000000000000
     0.0000000000000000   15.010000000000000    0.0000000000000000
     0.0000000000000000    0.0000000000000000    16.400000000000000
PRESSURE
17.2055 17.3678 8.64651 0.000969 0.231672 -0.086796
PRIMCOORD
320 1
Pb       3.57648      3.72487      4.02723         0.693473      0.073753      0.529383
Pb       3.85760      3.67975      0.00562        -0.903983      0.261038     -0.398543
Pb       3.74923     14.96074      4.11502         0.270207      0.056307      0.126328
Pb       3.67739      0.02356     16.39284        -0.107096     -0.300992     -0.223194
Pb      15.00947      3.73135      4.15604         0.152350      0.018835     -0.456174
Pb       0.00893      3.85872      0.08427         0.273247     -0.467880     -0.468776
Pb       0.03799     14.94891      4.08449        -0.361188      0.182882      0.729296
Pb      14.94372      0.03013     16.32637         0.302624     -0.445258     -0.277989
Pb       3.91105      3.67522      8.21109        -0.386876      0.756337     -0.001285
Pb       3.84373     14.95323      8.34793        -0.558693      0.140316     -0.828156
Pb       0.10003      3.66152      8.11179         0.116682      0.470847      0.643974
Pb       0.13963      0.05402      8.30646        -0.025839     -0.311070      0.113411
Pb       3.83086      3.78506     12.36010         0.031183     -0.112927     -0.418827
Pb       3.81663      0.05578     12.26143        -0.780196     -0.749037      0.625125
Pb      14.98006      3.67751     12.27573         0.244441     -0.103643     -0.203586
Pb      14.90564     15.00401     12.27944         0.698531      0.230987      0.457603
Pb       3.57395      7.61641      4.09015         0.662607     -0.518855      0.590968
Pb       3.73842      7.47669     16.38079         0.136651      0.269106     -0.536701
Pb      14.86641      7.44815      4.10956         0.041975      0.434595     -0.098352
Pb       0.00056      7.47633      0.03899        -0.274824      0.146615     -0.296908
Pb       3.66065      7.47463      8.32203         0.285124     -0.231952     -0.777884
Pb      14.94741      7.44008      8.11687         0.343996      0.075163     -0.076082
Pb       3.81735      7.44208     12.36746        -0.425284      0.193473     -0.051675
Pb       0.14410      7.50167     12.32644        -0.501246     -0.453573     -0.242172
Pb       3.64287     11.28446      3.91445         0.106631      0.507337      1.100669
Pb       3.69040     11.29203      0.10117        -0.047111     -0.353945     -0.848407
Pb      14.82330     11.27705      4.17126         0.919850      0.037938     -0.029045
Pb      14.97476     11.13082     16.35800        -0.115638      0.857041      0.587811
Pb       3.62859     11.15365      8.24703         0.320920      0.263266     -0.174158
Pb      14.89628     11.17539      8.27481        -0.106232      0.249188     -0.138741
Pb       3.74367     11.21115     12.42236        -0.158602      0.385887     -0.043045
Pb      14.98752     11.18726     12.29561         0.022675      0.496561     -0.542163
Pb       7.47156      3.71034      4.22624         0.020077     -0.289075     -0.122607
Pb       7.46388      3.81061      0.05324         0.319387     -0.391786     -0.440296
Pb       7.42057      0.04550      4.12921         0.382359     -0.055512      0.046917
Pb       7.54337      0.03021      0.04934        -0.043094      0.222608      0.006689
Pb       7.59891      3.84550      8.30571        -0.582514     -0.730167     -0.753388
Pb       7.43260     14.75264      8.36127         0.671736      1.213677     -0.702891
Pb       7.58496      3.60238     12.34125        -0.123984      0.365542     -0.465673
Pb       7.50097      0.01794     12.29447        -0.185270      0.334841      0.452415
Pb       7.41038      7.50462      4.13926         0.005247     -0.129116     -0.313872
Pb       7.45618      7.48816      0.13822         0.450068     -0.015999     -0.497178
Pb       7.49174      7.56489      8.16568        -0.302147     -0.023877     -0.050763
Pb       7.53831      7.33962     12.32006         0.416046      0.368940     -0.297408
Pb       7.23408     11.30093      4.11333         0.830076      0.111675      0.090269
Pb       7.47434     11.25580      0.09713        -0.056302     -0.156611     -0.403439
Pb       7.40257     11.14194      8.35632         0.097890      0.044102     -0.727475
Pb       7.51958     11.17267     12.49766        -0.481487      0.135675     -0.305538
Pb      11.42880      3.70943      4.14927        -0.676779     -0.760681     -0.228476
Pb      11.19380      3.79587      0.03771         0.366583     -0.573838     -0.332800
Pb      11.25832      0.03321      4.18045         0.020526      0.430193     -0.515383
Pb      11.19300      0.01398     16.39243         0.451724     -0.272646     -0.039561
Pb      11.30468      3.77692      8.21691         0.146692     -0.416017     -0.603253
Pb      11.34503     14.93906      8.23769        -0.799679      0.271609     -0.080364
Pb      11.33107      3.74993     12.34671         0.016162     -0.120997     -0.148474
Pb      11.25793     14.90150     12.24234         0.505111      0.310699      0.246372
Pb      11.00964      7.42598      4.12987         0.999190     -0.152362     -0.393738
Pb      11.20180      7.49069      0.01274         0.167256     -0.365523      0.363933
Pb      11.18267      7.51447      8.23519         0.147402      0.268217     -0.815797
Pb      11.24664      7.49544     12.42307        -0.212755     -0.287409     -0.747080
Pb      11.11679     11.34389      4.23306         0.420815      0.031766     -0.741309
Pb      11.11052     11.33998      0.07725         0.886068     -0.020552      0.043076
Pb      11.13924     11.18648      8.19000         0.254243      0.070589      0.522083
Pb      11.26632     11.24894     12.36360         0.278627     -0.120826      0.176414
Ti       1.81894      1.80144      2.13872         0.975905      0.423516     -0.895126
Ti       1.93628      1.83386     14.34095        -1.517474      0.604628     -0.484469
Ti       1.78887     13.14397      2.04236        -0.253578     -0.278026      0.030203
Ti       1.81910     13.11262     14.32145         1.096333      0.582407      0.149839
Ti      13.20076      1.83786      1.92225        -2.246041      0.395772      2.609756
Ti      13.14471      1.86804     14.39190         0.009364     -0.346359     -0.544288
Ti      13.10575     13.19676      2.12385        -0.311091     -0.042102     -1.316207
Ti      13.13935     13.01897     14.35182        -0.406639      1.986729      0.735522
Ti       1.95124      1.81021      6.16469        -0.260925     -0.589836      0.465717
Ti       1.81758     13.11834      6.29633        -0.247238      0.536387     -1.020103
Ti      13.20605      1.78553      6.24372        -1.720360      0.540233     -1.405487
Ti      13.09769     13.16105      6.21542         0.544546     -1.105835      0.112683
Ti       1.97577      1.95880     10.30424        -0.510947     -0.966344      0.240394
Ti       1.87675     13.15467     10.33095         0.018890     -0.286022      1.025432
Ti      13.19571      1.86931     10.29686         0.611942      0.065180      1.069162
Ti      13.12718     13.13369     10.28699         0.252361     -1.184223      0.169240
Ti       1.88530      5.67802      2.07457        -0.385973     -1.169709      0.271382
Ti       1.85595      5.57347     14.27746         1.183387     -0.024047      0.768735
Ti      13.11461      5.62685      2.15392        -0.156073      0.425867     -0.338764
Ti      13.15218      5.62225     14.26503         0.510982     -0.458846      0.564921
Ti       1.91977      5.59103      6.16972        -0.273927      0.725318      0.291495
Ti      13.18578      5.54132      6.19194        -1.519231      1.190670      1.053185
Ti       1.93739      5.61200     10.29619        -0.532253     -0.431367     -1.112683
Ti      13.22705      5.68468     10.24667        -0.344899     -1.522267      0.582714
Ti       1.88837      9.39285      2.07693        -1.495002      1.059334     -0.445762
Ti       1.88754      9.35895     14.38262         0.743545      0.175487      1.798015
Ti      13.13163      9.44787      2.11826        -0.257912     -0.495654     -0.207383
Ti      13.10948      9.34038     14.37546         0.943344      0.713468      1.413099
Ti       1.81128      9.41628      6.15802        -0.242247     -1.560092      0.465557
Ti      13.07668      9.37156      6.14796         0.221400     -0.648060     -0.317514
Ti       1.77561      9.36176     10.30279         1.183330      0.226189      0.066743
Ti      13.06079      9.31164     10.30822         0.387062      1.597966     -0.229995
Ti       5.65608      1.88437      2.02678        -0.464113      0.452489      0.475705
Ti       5.63222      1.83726     14.34190         0.267026      0.221527      0.073832
Ti       5.59718     13.18967      1.97486        -0.011978     -0.109912      1.384861
Ti       5.62466     13.13849     14.37550        -0.843169      0.223701     -0.286936
Ti       5.71991      1.91788      6.23109         0.428509     -0.367374      0.010147
Ti       5.55732     13.12821      6.22314        -0.165006     -0.033631      0.189209
Ti       5.73479      1.88689     10.24891        -0.192693      0.692482      0.138499
Ti       5.60517     13.11758     10.40883        -0.738836     -0.697744     -0.044678
Ti       5.56662      5.59857      2.08614         0.249102      0.968083      0.406044
Ti       5.66484      5.69562     14.38807        -0.384933     -0.706778      0.210278
Ti       5.60546      5.68202      6.13029        -0.287429     -0.423127      1.186084
Ti       5.69151      5.64458     10.28010        -0.939077     -0.954267     -0.633535
Ti       5.61511      9.31220      2.08248         0.271243      0.592166     -0.198617
Ti       5.66971      9.40290     14.34927        -1.398756     -0.119473      1.242302
Ti       5.50109      9.41179      6.19034         0.282233     -0.387063     -0.709134
Ti       5.54450      9.38872     10.38319         0.335252     -0.331024     -0.416118
Ti       9.39804      1.87333      2.11326         0.774016     -0.469676      0.180724
Ti       9.37837      1.75863     14.34149         0.801809      0.924239      0.259264
Ti       9.31165     13.14367      2.03767        -0.128461      0.165205      1.422411
Ti       9.37010     13.07051     14.30952         0.335944      0.382359      0.834244
Ti       9.45189      1.77476      6.22396        -0.432431      0.547640      0.492594
Ti       9.33445     13.05404      6.21607        -0.411378      0.395129     -0.514585
Ti       9.59432      1.89532     10.25996        -2.310350     -1.485346     -0.359802
Ti       9.31532     13.11100     10.38516         0.948404      0.330215     -1.000933
Ti       9.30215      5.52118      2.10796         0.559922      0.842089     -0.360068
Ti       9.39353      5.47989     14.34834        -0.536997      0.993489     -0.011574
Ti       9.35532      5.56273      6.21341         0.078347      0.218110      0.277510
Ti       9.43126      5.60985     10.17666         0.162002      0.376163      1.742340
Ti       9.40257      9.36577      2.09274        -0.558130     -0.263403     -0.100833
Ti       9.43262      9.30015     14.45388        -1.059909     -0.859109      0.846323
Ti       9.31947      9.39911      6.10177        -0.500123     -0.537312      0.813962
Ti       9.31992      9.43125     10.46015         0.140582     -1.983047     -1.221196
O       1.86823      1.78614      0.27733         0.521403     -0.117653      0.585897
O       1.93511      1.83781     12.47610         0.259959      0.578118      0.801462
O       1.68246     13.16377      0.22572         0.890741      0.180771      0.163136
O       1.88010     13.14281     12.53289        -0.224618     -0.593534     -0.055767
O      13.05298      1.82290      0.18916         0.223821      0.426980     -1.054586
O      13.11028      1.88600     12.48945         0.248407     -0.278757      1.270623
O      13.13867     13.19657      0.27143         0.219292     -0.297748      0.960802
O      13.12572     13.09376     12.51495        -0.002690     -0.232863      0.551409
O       1.75272      1.84231      4.33185         0.198277      0.159959     -0.080407
O       1.70576     13.13220      4.45844         0.518849     -0.053729      0.775523
O      13.00940      1.89023      4.36261         0.568396     -0.122785      1.025744
O      13.10630     13.14896      4.37449        -0.227888     -0.258651     -0.001904
O       1.87174      1.85309      8.47378        -0.131400      0.223607     -0.481797
O       1.88878     13.23279      8.54244         0.155005     -0.533150     -0.663047
O      13.18505      1.82529      8.54573        -0.285964     -0.186523     -2.599003
O      13.05037     13.03109      8.49392         0.111216      0.312311     -0.803967
O       1.78936      5.65861      0.26711         0.270352      0.028013     -0.317871
O       1.90855      5.58345     12.48305        -0.189079     -0.148090      0.036168
O      13.16568      5.59487      0.30985        -0.058574      0.221393      0.003079
O      13.32992      5.61109     12.44549        -0.767288     -0.038374      1.318076
O       1.80547      5.65157      4.29268         0.367020     -0.124346      0.537446
O      13.08818      5.64616      4.41096         0.612854     -0.282514     -1.056903
O       1.92898      5.51287      8.42018        -0.398434      0.166558      0.530124
O      13.17441      5.49104      8.44813        -0.085324      0.519399     -0.084372
O       1.94781      9.49065      0.22636        -0.587050     -0.481464      0.616413
O       2.02252      9.42550     12.64836        -0.712533      0.042305     -2.422871
O      13.17722      9.40917      0.26548        -0.200636     -0.151454      0.443061
O      13.05538      9.32243     12.61338         0.337093      0.562554     -1.055340
O       1.89726      9.35231      4.33329        -0.139848      0.077637     -0.057917
O      13.19603      9.31827      4.27888        -0.454358      0.306962      1.550611
O       1.86732      9.27991      8.51363        -0.015751      0.253015     -0.104446
O      13.09615      9.36653      8.50121        -0.044007     -0.098526     -0.009027
O       5.65097      1.93920      0.15372        -0.167885     -0.271079      1.227397
O       5.44208      1.84234     12.47705         0.824219      0.291688      0.836011
O       5.71963     13.17406      0.21315        -0.156218     -0.046946     -0.652636
O       5.57150     13.19371     12.51690         0.668497     -0.168384      0.593310
O       5.81610      1.80045      4.39558        -0.689650      0.426177     -0.008328
O       5.66484     13.10042      4.41032        -0.372172      0.301076     -0.501322
O       5.82015      1.87945      8.43138        -0.656815      0.036593     -0.343640
O       5.70977     13.12577      8.50900        -0.503970     -0.304735      0.361268
O       5.66354      5.71816      0.25274        -0.521264     -0.551010     -0.261103
O       5.70242      5.59771     12.56373         0.016407      0.264515     -0.265637
O       5.70243      5.69389      4.34894        -0.293219     -0.042679     -0.736439
O       5.61574      5.56359      8.47002        -0.004101      0.194356      0.165098
O       5.60376      9.24299      0.24468         0.260882      0.646019      0.342048
O       5.44917      9.38694     12.53205         0.906259     -0.129263      0.174111
O       5.43455      9.44285      4.29037         0.447408     -0.386793      0.556919
O       5.52104      9.39421      8.55302         0.193906      0.365020     -0.587225
O       9.32914      1.90516      0.28962        -0.040246      0.211793     -0.549498
O       9.42189      1.90102     12.51103         0.070511     -0.494835      0.163391
O       9.20566     13.20484      0.25343        -0.019689     -0.869031     -1.155705
O       9.30284     13.19274     12.47151         0.185189     -0.304200      1.046573
O       9.39548      1.89434      4.41501         0.161438     -0.291139     -0.857286
O       9.38528     12.90167      4.35739        -0.178338      0.541735      0.176869
O       9.51543      1.77701      8.47960        -0.246499      0.148021     -0.073869
O       9.34278     13.04795      8.52516        -0.132054     -0.103717      0.336382
O       9.45348      5.53042      0.21825        -0.163178     -0.111298      0.627139
O       9.35235      5.33684     12.49999        -0.381931      0.949004      0.455811
O       9.17126      5.74016      4.39449         0.395894     -0.264173     -0.175442
O       9.31994      5.67779      8.36841         0.499432     -0.067305      0.830895
O       9.33908      9.22744      0.23163         0.179069      0.375934     -0.066583
O       9.45934      9.32298     12.66686        -0.354607      0.296682     -1.228047
O       9.26384      9.30382      4.28983         0.588694      0.343369      0.144483
O       9.45167      9.31757      8.60777        -0.375761      0.359259      0.650546
O       3.73933      2.00435      2.52511         0.269740     -0.556831     -0.919475
O       3.75816      1.67604     14.71779         0.389876     -0.409449     -0.095934
O       3.68404     13.10900      2.36171         1.278851     -0.375359     -0.319902
O       3.75776     13.50586     14.59049        -0.212167     -0.524136      0.403387
O      14.96773      1.49106      2.15053         1.188057      0.658746      0.607239
O       0.01639      2.05215     14.66823        -0.104968      0.388925     -0.124330
O       0.00029     13.36267      2.45154        -1.162441     -0.394324     -0.747951
O      14.97800     12.98866     14.54088         0.043901     -0.561517      0.237050
O       3.74143      2.07580      6.44604         1.197415     -0.683360     -0.329199
O       3.66816     13.09231      6.49097         1.149806     -0.182753      0.240890
O      14.97530      1.55236      6.38512         1.326199      0.692165      0.497903
O      14.96283     13.32708      6.61909        -0.045820     -0.327266     -0.245604
O       3.78630      2.31788     10.34704         0.410551     -0.890220      0.407035
O       3.76038     12.85193     10.68824        -0.007646      0.228374     -1.051220
O       0.03191      1.60987     10.52878         0.456772     -0.040200      0.219383
O       0.04010     13.39144     10.64454        -1.030771     -0.308266     -0.606082
O       3.72687      5.35539      2.32571        -0.674724      0.883544     -0.037855
O       3.80587      5.85022     14.55698        -0.676865     -0.075783      0.362033
O       0.02631      5.64062      2.36640        -1.050609      0.524776      0.165212
O       0.08020      5.31060     14.62158        -1.885139      0.553799     -0.031581
O       3.71487      5.51726      6.45152         0.942280     -0.240969     -0.360688
O      15.00902      5.69491      6.45022        -0.016802     -0.255309     -0.098427
O       3.73585      5.39973     10.49235         0.983559     -0.246358      0.447273
O       0.02145      5.82777     10.53582         0.073632      0.192318     -0.106675
O       3.72796      9.67943      2.21618         0.019779     -0.608227      0.238380
O       3.75370      9.21938     14.69736         0.373323     -0.415011      0.054402
O      14.97113      9.27074      2.35594         1.226743      0.112317     -0.293337
O       0.02868      9.58335     14.68962        -0.583439     -0.135777     -0.612772
O       3.67901      9.35402      6.45314        -0.495188      0.149663      0.362201
O      14.98086      9.19449      6.57795         0.172991      0.305181     -0.660427
O       3.73480      9.70084     10.52888        -1.175202     -0.156045      0.054390
O      14.98147      9.10451     10.60520        -0.143964      0.373821      0.184208
O       7.48193      1.75510      2.34411        -0.323274     -0.054782     -0.011442
O       7.51619      2.01723     14.51998        -0.322443      0.263212      0.160163
O       7.44485     13.28184      2.37795        -0.272021      0.071219     -0.007507
O       7.52012     12.82936     14.48101         0.145139      0.054325      0.418031
O       7.60553      1.80606      6.40068        -1.004210     -0.050346      0.400851
O       7.48511     12.84527      6.44187        -0.227963      0.877789      0.238798
O       7.51853      1.59862     10.55508         1.205682      0.041801      0.173578
O       7.44036     13.52204     10.60354         1.148017     -0.516163     -0.619761
O       7.44451      5.75543      2.24432         0.089956      0.324027      0.173857
O       7.49623      5.44726     14.68717         0.532847     -0.375436     -0.154744
O       7.43969      5.69411      6.56792         1.221066      0.188403     -0.391653
O       7.51903      5.86748     10.45080         0.959437     -0.038518      0.125867
O       7.48448      9.14656      2.30839        -0.565091      0.225655     -0.025546
O       7.49682      9.57926     14.58276         0.320751      0.181476      0.089992
O       7.40017      9.44040      6.40960         0.977178     -0.306702      0.176310
O       7.45463      9.14875     10.50046         0.260373     -0.341634      0.762175
O      11.25396      2.09188      2.34146        -0.195450     -0.210224     -0.232984
O      11.24977      1.70262     14.65934        -0.461055     -0.028840     -0.205985
O      11.13524     13.02538      2.14754         1.976318     -0.452812      0.795091
O      11.27166     13.32421     14.73607        -1.196708     -0.540246     -0.656982
O      11.25456      1.84618      6.55967         1.209457      0.318684      0.136309
O      11.24272     12.83690      6.40194         0.535257      0.420728      0.172261
O      11.33500      2.09551     10.60621         0.007469     -0.074302     -0.055909
O      11.24580     12.85546     10.73795        -0.394961      0.053719     -0.867231
O      11.25521      5.55734      2.52492        -0.494517     -0.580798     -0.567988
O      11.27257      5.78287     14.52914         0.374408      0.216633      0.079269
O      11.23879      5.57871      6.48519         0.124527      0.205473     -0.104857
O      11.27515      5.42013     10.59873         0.043666      0.101959     -0.601011
O      11.21949      9.50213      2.32360         0.427115     -0.177396      0.141965
O      11.30833      9.15488     14.73300        -0.843957     -0.150078     -0.116188
O      11.23624      9.44957      6.56911         0.163899     -0.283318     -0.878945
O      11.25295      9.61454     10.71439        -0.366730     -0.110304     -0.412522
O       1.74381      3.72489      2.24989        -0.502077     -0.824730      0.603870
O       2.15347      3.75166     14.61319         0.178261     -0.485721      0.200362
O       2.03355     14.92609      2.60091        -0.304226      1.543836     -1.039618
O       1.62179      0.00856     14.50432         0.259579      0.050162      0.618797
O      13.23005      3.68350      2.37217         0.566952      0.813836     -0.065917
O      12.90497      3.77280     14.59796         0.251599      0.190432      0.037115
O      12.92227      0.03272      2.44473        -0.284537     -0.430826     -0.271076
O      13.24418      0.01435     14.71196         0.078129     -0.483322     -0.844927
O       1.73854      3.67793      6.29419        -0.697438      0.428363      0.304713
O       2.07111     14.99927      6.62176        -0.419727      0.359842     -0.487391
O      13.17665      3.67018      6.42340         0.228714      0.416520      0.166491
O      12.90106     14.96961      6.33316        -0.169190     -0.396089      0.540986
O       1.62592      3.76422     10.49752        -0.468866     -0.249417      0.252476
O       2.16588     14.99045     10.59197         0.115774      0.943897     -0.653005
O      13.37932      3.67674     10.48237         0.090394      1.955166      0.252010
O      12.92626     14.94439     10.47394        -0.463273      0.872543      0.507165
O       1.95269      7.56227      2.29296         0.487463     -0.706243     -0.019019
O       1.69348      7.46965     14.51245        -0.197211      0.173543      0.636535
O      13.01670      7.53585      2.38251         0.130742     -0.881111     -0.208075
O      13.36604      7.51776     14.59430         0.207046     -1.315042      0.275111
O       1.96998      7.45438      6.55236        -0.414106      0.240438     -0.586683
O      13.02028      7.48721      6.46781         0.250202     -0.316121      0.114460
O       2.07948      7.45867     10.67134         0.069230      1.226814     -0.213929
O      12.98431      7.51699     10.60531        -0.654614     -0.852601     -0.152638
O       1.73931     11.30881      2.39552        -0.299720     -0.538827     -0.162553
O       2.16752     11.28903     14.65004        -0.482532      0.085116     -0.055757
O      13.29507     11.33774      2.47053        -0.585011     -0.484338     -0.670031
O      12.89116     11.27076     14.75989         0.344037     -1.061200     -0.483720
O       1.81963     11.21206      6.51173        -0.420484      0.428770      0.282039
O      13.39183     11.20600      6.37681        -0.540564      0.323386     -0.043511
O       1.50429     11.24178     10.44446         0.497097     -0.307759      0.384049
O      13.41867     11.26159     10.45182         0.077075     -0.986842      0.797887
O       5.69174      3.80744      2.37968         0.478379     -1.806376     -0.097414
O       5.40933      3.71459     14.61156         0.310873      0.471863     -0.095105
O       5.48582      0.07445      2.36940        -0.073034     -1.015588     -0.199215
O       5.91939     14.96841     14.65258        -0.150742      0.854834     -0.077791
O       5.80084      3.78418      6.40331        -0.348833     -0.401853      0.036691
O       5.57581     15.00142      6.45482         0.178058     -0.109681      0.292976
O       5.89952      3.77187     10.51821         0.200239     -0.402198      0.268466
O       5.39362      0.06260     10.50272        -0.415834     -0.935753     -0.167080
O       5.29393      7.50819      2.33041         0.146604     -0.175695      0.151419
O       5.84073      7.55822     14.67042        -0.018990     -0.565863     -0.479869
O       5.50494      7.50993      6.53466         0.245459      0.311240     -0.222180
O       5.33450      7.45321     10.52138         0.175318      1.227782      0.415823
O       5.77422     11.30427      2.28696        -0.332035     -0.247898     -0.430381
O       5.35472     11.29085     14.70742         0.388452     -0.410920     -0.166110
O       5.47450     11.24315      6.39725         0.076021     -0.179400      0.610078
O       5.93549     11.27646     10.64736        -0.053062      0.057596     -0.365768
O       9.14927      3.71384      2.39501         0.111927      0.683104      0.120262
O       9.56050      3.67065     14.58978        -0.002140     -0.171938      0.494584
O       9.52862      0.00686      2.26694        -0.420454     -0.051081      0.676411
O       9.20832     14.93784     14.78052        -0.076114      0.030914     -0.925518
O       9.45201      3.72648      6.49403        -0.735287      0.480090     -0.045163
O       9.48591     14.90021      6.41763        -0.157190     -0.571949      0.062538
O       9.17279      3.67943     10.39857        -0.203462      1.536810      0.062661
O       9.75996     14.93858     10.43826        -0.562346      0.548048      0.395154
O       9.44342      7.37994      2.26625         0.410184      1.517604      0.347780
O       9.18973      7.39931     14.55485         0.228409      0.506156      0.085385
O       9.38830      7.56216      6.55429         0.092280     -0.271319     -0.508144
O       9.55691      7.47147     10.68825         0.118880     -0.230178     -0.100032
O       9.27577     11.22570      2.16949        -0.789958     -0.265094      0.132692
O       9.58104     11.17642     14.63926        -0.004963      1.245600      0.044029
O       9.45400     11.18351      6.54715        -0.777612     -0.546111     -0.142742
O       8.99521     11.23885     10.63597         0.494385      0.555382      0.049457
