  # total energy = -7865.27585056 
CRSYTAL
PRIMVEC
    15.010000000000000    0.0000000000000000    0.0000000000000000
     0.0000000000000000   15.010000000000000    0.0000000000000000
     0.0000000000000000    0.0000000000000000    16.400000000000000
PRESSURE
16.8142 17.1756 8.12431 0.034907 0.096871 -0.057183
PRIMCOORD
320 1
Pb       3.57619      3.67266      4.04831         0.637100      0.254856      0.448947
Pb       3.83807      3.68868     16.35335        -0.691871      0.342496      0.324407
Pb       3.78449     14.94327      4.14507        -0.052496      0.321553     -0.268470
Pb       3.71816      0.04340     16.36995        -0.087290     -0.190275      0.162576
Pb      14.99721      3.76149      4.19585        -0.034962     -0.259927      0.005169
Pb      14.98854      3.86996      0.06955        -0.339467     -0.700483      0.102578
Pb      15.00795     14.95370      4.16252         0.113089      0.339302     -0.440217
Pb      14.95787      0.03640     16.27817         0.425243      0.023992      0.410052
Pb       3.88834      3.67609      8.18720        -0.834349      0.213024      0.068650
Pb       3.86473     14.96545      8.35857        -0.739641      0.115000     -0.817334
Pb       0.09114      3.66678      8.08883         0.072725      0.207811     -0.040490
Pb       0.14988      0.03459      8.30156        -0.209064     -0.123128     -0.076473
Pb       3.89457      3.77315     12.36129         0.185805     -0.142623     -0.302931
Pb       3.79185      0.04712     12.27754        -0.141039     -0.255623      0.428392
Pb      14.99991      3.70853     12.26006        -0.411244      0.286430      1.093502
Pb      14.91550     15.00996     12.26512         0.050150     -0.471787      0.330131
Pb       3.56652      7.66254      4.14289         0.687209     -0.948204     -0.023874
Pb       3.75956      7.51309     16.35477        -0.364584     -0.575953      1.136117
Pb      14.85625      7.48138      4.12667         0.360372     -0.186079     -0.361006
Pb      14.98581      7.47352      0.03468        -0.219130     -0.418528     -0.202213
Pb       3.66535      7.49213      8.33760         0.100674      0.282069     -0.573482
Pb      14.95907      7.45247      8.09110         0.302071     -0.278777      0.614793
Pb       3.81231      7.38391     12.39148        -0.616979      0.840526     -0.492759
Pb       0.12746      7.49411     12.29465        -0.496512      0.360226     -0.126385
Pb       3.62832     11.25874      3.91914         0.044218      0.183617      1.381274
Pb       3.68378     11.28769      0.10017         0.445870      0.375455     -0.556257
Pb      14.80269     11.24855      4.20301         0.889421      0.344264     -0.570724
Pb      14.97543     11.15661     16.36745        -0.447635      0.847765      0.133876
Pb       3.58939     11.15345      8.25334         0.139944     -0.044798     -0.263456
Pb      14.89708     11.15935      8.22819         0.682748      0.396781      0.130468
Pb       3.72503     11.18094     12.45889         0.090900     -0.201453     -0.592382
Pb      14.98849     11.18755     12.29819        -0.135211     -0.182861     -0.042686
Pb       7.45644      3.75578      4.26758         0.303751     -0.460186     -0.753242
Pb       7.47625      3.79596      0.07983         0.003581     -0.307399     -0.260873
Pb       7.42734      0.05615      4.18534         0.471534      0.133926     -0.136152
Pb       7.56341      0.03716      0.02851        -0.054989     -0.346524      0.106897
Pb       7.60777      3.84277      8.27838         0.073884     -0.379649     -0.212181
Pb       7.40855     14.75922      8.36772         1.031897      0.742088     -0.832391
Pb       7.59303      3.60109     12.37283         0.011300      0.745627     -0.620166
Pb       7.50118      0.03120     12.28850         0.394917     -0.694499      0.339648
Pb       7.39311      7.48545      4.16765         0.182079      0.210654     -0.095854
Pb       7.46985      7.46231      0.12393         0.198251     -0.005474     -0.170896
Pb       7.49751      7.54814      8.12735        -0.145173      0.015474      0.269040
Pb       7.56894      7.37128     12.33470        -0.215367      0.421032     -0.527049
Pb       7.16905     11.28889      4.13272         1.499056     -0.368360      0.534421
Pb       7.44792     11.26278      0.07683         0.068195      0.347054     -0.797344
Pb       7.37769     11.11401      8.33853         0.450314      0.452350     -0.349043
Pb       7.52509     11.18280     12.51723        -0.074753      0.094652     -0.598736
Pb      11.44417      3.70087      4.18448        -0.728234      0.086821     -0.326412
Pb      11.23915      3.82576      0.04474         0.326075     -0.261003     -0.205175
Pb      11.27829      0.02916      4.20300        -0.548619     -0.371247      0.041165
Pb      11.25386      0.05641     16.35772        -0.227015     -0.337830      0.404757
Pb      11.35705      3.76975      8.23054         0.137722     -0.547901      0.266099
Pb      11.34583     14.92743      8.23043         0.113389      0.226183      0.223750
Pb      11.33976      3.76065     12.33108        -0.525505     -0.371153     -0.646308
Pb      11.28008     14.88122     12.26998         0.071511      0.465270     -0.582419
Pb      11.04227      7.42769      4.15029         0.297121      0.447475     -0.955958
Pb      11.21331      7.46321      0.03924         0.319693     -0.138312      0.330394
Pb      11.20334      7.52745      8.20060        -0.260798     -0.373252      0.010914
Pb      11.22805      7.48122     12.42762         0.800642     -0.096870     -0.189564
Pb      11.09396     11.35404      4.24073        -0.150209     -0.252837     -0.834175
Pb      11.09803     11.35111      0.05291         0.216137     -0.445321      0.191580
Pb      11.13840     11.19919      8.19795        -0.035920      0.425041      0.024038
Pb      11.26464     11.21816     12.38619        -0.093538     -0.157553      0.031586
Ti       1.86236      1.84191      2.11319        -0.629395      0.031938     -0.349837
Ti       1.85604      1.84817     14.27959         0.152830      0.519897      1.406991
Ti       1.81037     13.18682      2.06917        -0.810664      0.147476      0.174939
Ti       1.86080     13.15505     14.20235        -0.417983     -0.129432      1.117284
Ti      13.06424      1.80537      2.05652         1.792619      1.784406     -0.905243
Ti      13.10337      1.85810     14.40796         0.954842      0.499863     -0.386217
Ti      13.06519     13.18790      2.11097         0.481242     -1.181566     -0.030144
Ti      13.10182     13.06562     14.46807         0.986176     -0.257469     -0.994949
Ti       1.99739      1.75955      6.14011        -1.108288      1.519022      0.679191
Ti       1.88089     13.12496      6.25376        -0.223619     -0.539166      1.019724
Ti      13.17648      1.77123      6.21508         0.692066      0.095875      1.766756
Ti      13.18085     13.04648      6.17241        -0.498864      1.258056      0.692202
Ti       1.98697      1.97634     10.40865         0.250006     -0.698438     -2.136578
Ti       1.88904     13.12716     10.33277        -0.797512     -0.050026     -0.500001
Ti      13.27116      1.85678     10.32132        -2.891510     -0.147915     -1.694326
Ti      13.11416     13.03526     10.29392        -0.209566      0.588510     -0.853612
Ti       1.85408      5.59991      2.05319        -0.445432      0.371572      0.091423
Ti       1.91429      5.52583     14.31863        -1.215749      0.501958      0.638423
Ti      13.10501      5.67433      2.21286        -0.881061     -0.900609     -1.021797
Ti      13.15489      5.56449     14.28168        -0.108742      0.518100      0.809725
Ti       1.98127      5.62773      6.12210        -1.327777     -1.122698      0.148811
Ti      13.12272      5.65600      6.22320         0.989144     -1.846185     -0.387831
Ti       1.83315      5.58664     10.28295         0.697635      0.705848     -0.415357
Ti      13.16922      5.59366     10.28488        -0.557967      1.402291     -0.861487
Ti       1.81318      9.42376      2.10348         0.100120     -0.687715      0.220086
Ti       1.85595      9.37283     14.49330         0.108596     -0.359316     -1.704695
Ti      13.13396      9.46118      2.13871        -1.766693     -1.414353     -0.670212
Ti      13.14715      9.29057     14.37703        -0.952442     -0.325852     -0.791935
Ti       1.75277      9.34971      6.07122         1.609243      0.901428      1.003027
Ti      13.05396      9.33649      6.15874        -0.317177      0.346827      0.530339
Ti       1.83165      9.39687     10.33314        -0.290922     -0.501612     -0.050332
Ti      13.04444      9.32233     10.22170         0.585160     -0.736068      1.113366
Ti       5.61599      1.86545      2.07275         0.338153      0.050717      0.926658
Ti       5.66775      1.87520     14.39815        -0.130481      0.022318      0.050907
Ti       5.61995     13.17078      2.12041        -0.090529     -0.531146     -1.514730
Ti       5.59057     13.16930     14.34119         1.024080     -0.273831      1.357882
Ti       5.70146      1.90548      6.19152         0.864599     -1.147177     -0.181354
Ti       5.55272     13.12973      6.20751         1.137982     -0.288559     -0.080401
Ti       5.73521      1.84258     10.23918        -0.114624      1.055140      0.384146
Ti       5.54757     13.11921     10.34725         1.417665     -1.350419      0.787888
Ti       5.54176      5.59978      2.15899         0.051467     -0.037108     -0.417031
Ti       5.62058      5.68225     14.37508         1.025708     -1.625552     -0.000675
Ti       5.61430      5.61348      6.15903         0.571029      1.043859     -0.235235
Ti       5.59732      5.60531     10.26048         1.128579      0.071681      0.896000
Ti       5.56632      9.30629      2.08615         0.134024     -0.175322     -0.466600
Ti       5.58016      9.36428     14.39442         1.531392      1.200976     -0.409727
Ti       5.49779      9.38183      6.21636         0.004981     -0.290454      0.946103
Ti       5.58200      9.39087     10.27676         0.260865      0.122655      0.213105
Ti       9.37608      1.85954      2.12022        -0.432688      0.160289      0.183458
Ti       9.42975      1.77180     14.27943        -0.216347      1.884771      0.313977
Ti       9.28849     13.17253      2.13721         1.393082     -0.642603     -0.640625
Ti       9.40428     13.13666     14.32339        -2.155578     -1.397583      0.057719
Ti       9.48616      1.78282      6.22110        -1.069041      0.146612     -0.071193
Ti       9.38752     13.11934      6.24588        -0.771764     -0.678855     -0.111750
Ti       9.44855      1.82670     10.17301         1.647074      0.744956      0.357536
Ti       9.31544     13.06743     10.33948         0.498611      0.026362     -0.282458
Ti       9.28680      5.53244      2.11567         0.700589      0.733817     -0.137287
Ti       9.35041      5.51491     14.38031         0.763329      0.165113      0.164954
Ti       9.39053      5.55272      6.19580        -0.282350      0.924185      0.091928
Ti       9.38955      5.64635     10.24899         0.022836     -0.753056      0.602800
Ti       9.33001      9.37329      2.07478         0.849522      0.096703      0.551167
Ti       9.34919      9.25048     14.46587        -0.040923      1.743943     -0.473786
Ti       9.31134      9.38659      6.14913        -0.463585     -0.079648     -0.626558
Ti       9.36862      9.31488     10.42030        -0.896815      0.958332      0.620333
O       2.01491      1.87753      0.29839        -0.282016     -0.154832     -0.250560
O       1.85745      2.05901     12.51816         0.365717     -0.849123     -1.473797
O       1.77577     13.25205      0.27141         0.462485     -0.340327     -0.025650
O       1.82155     13.10768     12.42551         0.248336      0.254278      0.241825
O      13.07539      1.96497      0.13206        -0.133203     -0.914796      1.643904
O      13.16280      1.85527     12.53743         0.153709      0.068650     -0.405779
O      13.22085     13.16213      0.30117        -0.511751      0.105389     -1.626583
O      13.14355     13.14247     12.58803        -0.284701     -0.398372      0.040454
O       1.73485      1.90104      4.35042         0.658016     -0.790946      0.132023
O       1.78306     13.16908      4.48522         0.254401      0.175261     -0.958989
O      13.09181      1.91324      4.44994         0.257497     -0.428116     -1.762804
O      13.10654     13.03199      4.33314         0.307360     -0.005962     -0.372168
O       1.92511      1.90159      8.51279         0.210882      0.211936      0.308556
O       1.92190     13.03027      8.49123        -0.033454      0.719119      0.420120
O      13.14401      1.83038      8.38206         0.536701      0.010461      1.270191
O      13.05528     13.16361      8.44446         0.283645     -0.715747      1.048106
O       1.84978      5.63075      0.20393        -0.130736     -0.227667      0.061670
O       1.96455      5.58511     12.48518        -0.224445      0.086061      0.469226
O      13.02405      5.62238      0.33806         0.102870     -0.057555     -0.432219
O      13.27258      5.58585     12.51065        -0.336741      0.101701     -1.105126
O       1.94984      5.51324      4.28783        -0.368005      0.822541      0.138100
O      13.19742      5.62847      4.29727        -0.508731      0.143510      0.790283
O       1.95254      5.50321      8.46146        -0.110742      0.367934     -0.231473
O      13.26573      5.60204      8.42241        -0.508206      0.129598      0.035367
O       1.88529      9.43335      0.26520        -0.136427     -0.028685     -0.977426
O       1.96917      9.42499     12.54642        -0.291849      0.016883      1.126899
O      13.09702      9.34485      0.29679         0.246652     -0.275474     -0.681729
O      13.09910      9.41425     12.49939        -0.091059     -0.281723      1.394429
O       1.80259      9.42171      4.23869         0.336568     -0.431748      0.729168
O      13.15792      9.42965      4.35812         0.051881     -0.379771     -0.315702
O       1.82276      9.38003      8.50039        -0.246284     -0.146956     -0.022986
O      13.04642      9.23758      8.40510         0.523366      0.696331     -0.196252
O       5.58371      2.00053      0.26425         0.074901     -0.844570     -1.089287
O       5.62648      1.96807     12.58215         0.028264     -0.751283     -0.582997
O       5.58043     13.20261      0.24362         0.048528     -0.191358      0.719029
O       5.60810     13.14381     12.55749        -0.025016      0.386764     -0.622760
O       5.65741      1.86755      4.36844         0.539825     -0.104393     -0.010211
O       5.57932     13.00800      4.32831         0.215311      0.576935      0.110739
O       5.73431      1.75928      8.44277        -0.250843      0.525407     -0.226314
O       5.69163     13.17942      8.52697        -0.505603     -0.352876     -0.504086
O       5.71253      5.66338      0.23640        -0.288418      0.045584      0.398210
O       5.73796      5.58392     12.52217        -0.657394      0.225590      0.195200
O       5.62404      5.63764      4.28742        -0.051549     -0.238765      0.770374
O       5.59602      5.56061      8.48933         0.115903      0.024224     -0.884602
O       5.59721      9.28176      0.26332        -0.210446      0.047722     -0.823902
O       5.65679      9.53354     12.55168        -0.749664     -0.635362      0.583770
O       5.49426      9.27300      4.40654         0.217406      0.524090     -1.145352
O       5.56571      9.36062      8.40644         0.225999      0.231659      0.936391
O       9.39872      1.88414      0.25928         0.112684     -0.208553      0.201275
O       9.52716      1.92806     12.47656        -0.532768     -0.312155      0.237383
O       9.25213     13.17395      0.19686         0.550139      0.122737      0.643069
O       9.26642     13.18824     12.48195         0.487091     -0.066965      0.721510
O       9.43000      1.88183      4.34073        -0.079120     -0.326222      0.694725
O       9.35895     13.10033      4.38398        -0.042321     -0.162148     -0.180492
O       9.49288      1.90037      8.36440        -0.298945     -0.052782      0.263796
O       9.35574     13.00342      8.48139         0.106841      0.368443     -0.330007
O       9.39203      5.58839      0.20955        -0.269431     -0.322747      0.453663
O       9.27706      5.54260     12.55794         0.392954      0.277148     -0.267183
O       9.30243      5.66544      4.34848        -0.051670      0.205122      0.641511
O       9.46103      5.68582      8.45412        -0.382251     -0.183225     -0.637357
O       9.32472      9.36697      0.21987         0.427099      0.220793      0.024039
O       9.24113      9.39377     12.57162         0.703946     -0.210935      0.678053
O       9.23617      9.33559      4.32296         0.558186     -0.054219     -0.339015
O       9.35633      9.33743      8.64310         0.094226      0.151017     -1.495040
O       3.77683      1.91147      2.54534        -0.725887     -0.059551     -0.780064
O       3.77304      1.58281     14.56144         0.254738     -0.005943      0.240618
O       3.75929     12.98890      2.42859        -0.868004      0.291563     -0.633911
O       3.70990     13.53163     14.59305         0.322378     -0.637533     -0.272079
O      14.97101      1.59878      2.27704        -0.453493     -0.339257     -0.049925
O       0.04425      2.09524     14.68317        -0.344352     -0.208312     -0.065081
O      14.94500     13.33248      2.35630         0.869715      0.158160      0.292755
O      15.00165     12.83007     14.49284        -0.112994      0.581128      0.658719
O       3.85529      2.04105      6.32159        -0.896739      0.013406      0.320542
O       3.79840     13.03244      6.55580        -1.773091     -0.311957     -0.075097
O       0.09307      1.54231      6.46588        -0.758625      0.495465     -0.108531
O      15.00903     13.27125      6.63549         0.497508      0.136881     -0.614698
O       3.85871      2.31556     10.37415        -0.898367     -0.693706      0.672551
O       3.74248     12.96354     10.68024        -0.370274     -0.332266     -0.338361
O       0.04414      1.59208     10.46032         0.450717      0.105198      0.493201
O      14.97514     13.39381     10.57048         0.111975      0.130465     -0.326121
O       3.66513      5.39892      2.14269         0.990800     -0.610577      0.558935
O       3.75274      5.91204     14.62777        -0.173318     -0.225589     -0.243069
O      14.95972      5.70619      2.20351         0.763334      0.815630      0.494277
O      14.99943      5.34746     14.64403         1.643647     -0.311566     -0.003969
O       3.82937      5.46654      6.33945        -1.033739     -0.189041      0.432279
O       0.00799      5.74392      6.37858         0.663751     -0.047410     -0.111357
O       3.79126      5.25479     10.43530        -0.966439      0.437606      0.524308
O       0.01353      5.97542     10.45398         0.461206     -0.174739      0.215940
O       3.71661      9.63976      2.23589        -0.438934     -0.255414      0.340947
O       3.75876      9.08465     14.66494        -0.386390      0.586734     -0.259339
O       0.02155      9.19207      2.30901        -0.993086     -0.183959      0.110405
O      14.99166      9.57290     14.58885         0.676609      0.353307      0.331807
O       3.62649      9.37307      6.63802         0.047247      0.194614     -0.996695
O      14.98656      9.19378      6.36200        -0.665832      0.026054      0.226563
O       3.68625      9.76025     10.48371         0.781587     -0.071132      0.147178
O      14.94588      9.18748     10.58986         0.484077     -0.277078     -0.195188
O       7.47945      1.74426      2.33045         0.418798     -0.555369      0.155746
O       7.53998      2.17217     14.55359         0.474962      0.246770      0.334004
O       7.50132     13.35741      2.29883        -1.002525     -0.621227      0.506687
O       7.48321     12.81601     14.54398        -0.110387      0.269804      0.375702
O       7.57816      1.71221      6.44408         0.406957     -0.254625     -0.290814
O       7.48597     13.14222      6.47600         0.102446      0.155774     -0.150262
O       7.60818      1.53430     10.50069        -1.311515      0.680709     -0.102149
O       7.51023     13.47803     10.53731        -1.510733      0.275057     -0.182760
O       7.42629      5.78588      2.41220        -0.040041      0.261635     -0.513258
O       7.51176      5.33874     14.57145        -0.202055     -0.055024      0.362645
O       7.54726      5.78841      6.57025        -0.350116     -0.666909     -0.628474
O       7.52293      5.91203     10.40871        -0.596235      0.221498      0.151527
O       7.40982      9.08083      2.18680         0.797378      0.225079      0.737679
O       7.51586      9.67946     14.63892        -1.091818     -0.470052      0.235219
O       7.47220      9.29722      6.33264        -1.217058      0.135850      0.665577
O       7.43889      9.11420     10.52635         0.077136     -0.155177     -0.057247
O      11.24484      2.04431      2.41143        -0.042051      0.377031     -0.244911
O      11.26998      1.59462     14.62998        -0.449568     -0.035404     -0.192280
O      11.26046     13.01394      2.34593        -1.116323     -0.531875      0.024068
O      11.20692     13.39011     14.55933         1.041063     -0.222977      0.606856
O      11.35501      1.84638      6.53146        -0.994922      0.989087     -0.451173
O      11.32240     12.87820      6.39427        -1.160000     -0.459275      0.187615
O      11.33691      2.17988     10.52880        -0.266182      0.049680     -0.321379
O      11.20349     12.84474     10.63304         1.103512      0.014046     -0.089192
O      11.10527      5.41451      2.45497         1.461060     -0.069950     -0.076415
O      11.31512      5.88208     14.46938        -0.645831      0.032904      0.504046
O      11.25825      5.65807      6.52775        -0.204070     -0.365223     -0.591699
O      11.27121      5.35753     10.46224         0.490046      0.143149      0.370774
O      11.26589      9.47452      2.42705        -1.017375      0.333045     -0.194655
O      11.23466      8.98505     14.56009         0.857006      0.522741      0.137553
O      11.23298      9.44179      6.46956         0.238270     -0.100678     -0.272311
O      11.21908      9.73241     10.59481         0.294397     -0.354813     -0.200500
O       1.57182      3.65128      2.46744         0.946692      1.317630     -0.815993
O       2.23497      3.69084     14.50034        -0.149721      1.191599      0.638355
O       2.00616      0.00803      2.48538         0.203210     -0.994610     -0.037114
O       1.63518      0.01206     14.52401        -0.273451     -0.473542      0.031911
O      13.38577      3.71817      2.36433        -1.067444     -0.626215      0.151235
O      12.94292      3.69817     14.55772        -0.453730      0.657298      0.298998
O      12.82076     15.00741      2.39392         0.612210      0.642847     -0.159624
O      13.26154     14.97944     14.52825         0.677847     -0.333699      0.757233
O       1.77855      3.71928      6.32306         0.016133     -0.160423      0.436038
O       2.17212     14.99137      6.56993        -0.359532     -0.284231     -0.302202
O      13.27374      3.76168      6.40433        -0.346709     -0.732288     -0.033123
O      12.85058     14.86273      6.32487         0.922024      1.654145     -0.052163
O       1.45410      3.77274     10.55083         0.688896      0.116582     -0.531724
O       2.18594      0.10986     10.57747        -0.303843     -0.910748     -0.098979
O      13.47854      3.80675     10.46308        -0.008294     -1.765763      0.178145
O      12.80146     15.00735     10.42312         0.731729     -0.271529      0.674234
O       2.05447      7.48988      2.39523        -0.327652      0.092993     -0.577933
O       1.59078      7.52213     14.56520         0.475359     -0.580949      0.248108
O      12.87543      7.49135      2.38240         0.575775      0.098416      0.350231
O      13.58023      7.40867     14.53382        -0.966383      1.170497      0.278666
O       1.96213      7.46059      6.39190         0.078022      0.395515     -0.040449
O      13.06829      7.45876      6.44660        -0.099337      1.447775     -0.210632
O       2.10496      7.52381     10.61164         0.441913     -0.681782     -0.220402
O      12.88816      7.47463     10.49784        -0.398864      0.610657      0.336546
O       1.70418     11.30491      2.45563        -0.102025      0.078167     -0.646610
O       2.06787     11.30894     14.56607         0.646985     -0.524465      0.599754
O      13.30429     11.24250      2.23877         0.278405      0.987393      0.465941
O      12.93149     11.15594     14.67625        -0.463030      0.992176      0.213117
O       1.67955     11.23153      6.40664         0.321387     -0.387072      0.109714
O      13.29593     11.22744      6.43033         0.226239     -1.736755      0.169229
O       1.57700     11.30116     10.44566         0.006744     -0.187292      0.418329
O      13.46147     11.17300     10.47278        -0.685992      1.409598     -0.246971
O       5.74784      3.67570      2.27798         0.000776      1.829528      0.447757
O       5.35451      3.80611     14.61528         0.215040     -0.744977     -0.055738
O       5.55803     14.97788      2.38992        -0.533908      0.397243      0.243887
O       6.09226      0.03389     14.60281        -1.202379     -0.163203     -0.098908
O       5.88925      3.75305      6.42457        -0.103294      0.289198      0.240738
O       5.48805     14.97057      6.41258         0.312561      0.642728     -0.040081
O       5.92050      3.70357     10.61668         0.526397      0.422767     -0.754252
O       5.25835     15.00463     10.44701         0.769960      1.104114      0.690227
O       5.26912      7.47629      2.38718         0.145180     -0.313713     -0.125351
O       5.86661      7.49041     14.47200         0.254599      0.904129      0.572288
O       5.48830      7.47752      6.54704         0.276679     -0.361201     -0.307143
O       5.23469      7.57604     10.53713         0.307971     -1.410870     -0.112765
O       5.77365     11.20025      2.28262        -0.011180      0.647306      0.109041
O       5.34890     11.28120     14.67092        -0.413735     -0.180595      0.174684
O       5.56775     11.21716      6.43239         0.636792      0.149507      0.061995
O       5.92245     11.29312     10.50371        -0.279169     -0.075079     -0.194485
O       9.09749      3.72755      2.41948         0.098938     -0.131572     -0.444058
O       9.78663      3.71445     14.53474        -0.521865     -0.105961      0.306376
O       9.48525     14.99046      2.38280         0.364553      0.993444     -0.036730
O       9.11321     15.00097     14.50344        -0.144279     -0.065871      0.569494
O       9.35823      3.71026      6.36897        -0.044738      0.594818      0.218939
O       9.69908     14.91357      6.38320        -0.698486      0.807719      0.145784
O       9.17152      3.79414     10.38475        -0.452997     -0.941806      0.338222
O       9.65351     15.00999     10.45681         0.290980     -0.016452      0.100895
O       9.51235      7.50850      2.20143        -0.034939     -0.657646      0.501281
O       9.16376      7.45920     14.66169        -0.409944     -0.773793     -0.120996
O       9.39524      7.57093      6.54759         0.575504     -1.151548     -0.345179
O       9.67381      7.49792     10.73748        -0.427255     -0.188371     -0.629567
O       9.27514     11.28339      2.26380        -0.528193     -0.717171      0.163327
O       9.61068     11.25654     14.64753         0.303673     -0.173482     -0.212357
O       9.35381     11.20677      6.46336        -0.122236      0.197141      0.274912
O       9.01462     11.28488     10.56348         0.172771     -1.184341      0.109509
