  # total energy = -7883.42372142 
CRSYTAL
PRIMVEC
    15.3600000000000000    0.0000000000000000    0.0000000000000000
     0.0000000000000000   15.3600000000000000    0.0000000000000000
     0.0000000000000000    0.0000000000000000    17.440000000000000
PRESSURE
0.570249 0.787824 6.54081 -0.261257 -0.091118 -0.003306
PRIMCOORD
320 1
Pb       3.81269      3.82700      4.35174         0.197181      0.062485     -0.486756
Pb       3.87214      3.81993     17.38678        -0.333547     -0.046829     -0.036235
Pb       3.82639     15.34859      4.32614        -0.298755     -0.338527     -0.183077
Pb       3.85079      0.00114     17.41034        -0.383314     -0.328327     -0.373810
Pb      15.32769      3.82192      4.35048         0.234505      0.089793     -0.313506
Pb       0.00796      3.82183     17.43540         0.046005      0.064585     -0.504795
Pb      15.34981     15.33433      4.33208         0.146861     -0.138712     -0.517035
Pb      15.27696     15.33505     17.41753         0.094251      0.045498     -0.649972
Pb       3.81498      3.85318      8.65474        -0.290846     -0.102802     -0.392567
Pb       3.82144     15.33366      8.73134         0.160097      0.113655     -0.524448
Pb      15.25864      3.83301      8.66522         0.627025      0.182529     -0.452524
Pb      15.32391      0.03795      8.68492        -0.060803     -0.467622     -0.577706
Pb       3.84453      3.80637     13.02570        -0.236684     -0.208496     -0.851568
Pb       3.81355     15.30559     13.03464        -0.246889      0.340223     -0.361605
Pb      15.32909      3.78667     13.06379         0.219470     -0.035928     -0.412128
Pb      15.34402      0.00234     13.00529         0.049903     -0.040404      0.032805
Pb       3.84417      7.68180      4.30860         0.072334     -0.531128     -0.061169
Pb       3.79841      7.66511     17.43930        -0.236931     -0.103419     -0.747791
Pb       0.03525      7.66182      4.32093        -0.276040      0.163875     -0.342976
Pb      15.34551      7.70988     17.38508        -0.164109     -0.334610      0.086330
Pb       3.86611      7.63859      8.69021        -0.202393      0.282365     -0.266486
Pb      15.33660      7.64917      8.68710         0.116879     -0.011076     -0.428978
Pb       3.82794      7.66003     13.06238        -0.054207     -0.227497     -0.764485
Pb       0.00373      7.67189     13.05841        -0.346605     -0.107308     -0.502549
Pb       3.77870     11.48557      4.32251         0.200400      0.424439     -0.350718
Pb       3.87449     11.44709     17.38978        -0.348480      0.222795     -0.631078
Pb       0.02718     11.54244      4.28488        -0.150264     -0.079092     -0.537492
Pb      15.32961     11.48687     17.39647        -0.005266      0.061232     -0.411917
Pb       3.80890     11.53558      8.70474         0.069538     -0.282033     -0.822995
Pb      15.34862     11.46343      8.68394         0.023227      0.084952     -0.750779
Pb       3.86348     11.50913     13.04143         0.023782      0.066488     -0.663797
Pb       0.01134     11.49277     13.07698        -0.290193      0.214465     -0.554062
Pb       7.66734      3.78648      4.35250        -0.216654      0.172120     -0.472909
Pb       7.69608      3.85371     17.35830        -0.345196     -0.230478     -0.242934
Pb       7.65889      0.01210      4.31659         0.384823     -0.289816      0.196911
Pb       7.59356     15.34326     17.39109         0.455986      0.014418     -0.720602
Pb       7.66468      3.82031      8.69267        -0.326128     -0.094717     -0.797224
Pb       7.67654     15.31467      8.67844        -0.305027      0.403583     -0.743275
Pb       7.70732      3.85862     13.10575        -0.344735     -0.254193     -0.577911
Pb       7.68106      0.01856     13.04482         0.012759     -0.011150     -0.509286
Pb       7.62762      7.63822      4.31121         0.108691     -0.067857     -0.276763
Pb       7.66513      7.65271     17.41322         0.120626      0.025019      0.041441
Pb       7.64226      7.71138      8.66684        -0.002010     -0.183787     -0.287092
Pb       7.65323      7.64367     13.03900        -0.068090      0.376590     -0.711136
Pb       7.65356     11.48181      4.32837         0.138119     -0.256541     -0.086826
Pb       7.64142     11.54377     17.37533         0.238241     -0.235156     -0.215966
Pb       7.68800     11.49424      8.69517        -0.171279     -0.210252     -0.558896
Pb       7.72458     11.55283     13.06796        -0.196740     -0.434257     -0.892844
Pb      11.53324      3.79355      4.34134        -0.365514      0.171519     -0.677605
Pb      11.50113      3.82445     17.42366         0.197758      0.000032     -0.176339
Pb      11.51133      0.00757      4.29442         0.142601     -0.523153     -0.220609
Pb      11.49174     15.33780     17.34659        -0.177545     -0.056166      0.056129
Pb      11.52991      3.88544      8.68397        -0.188746     -0.261581     -0.411722
Pb      11.50111     15.32141      8.68095         0.133113     -0.006014     -0.809680
Pb      11.50989      3.79043     13.09563         0.034215      0.185908     -0.371425
Pb      11.46936     15.33982     13.03605         0.104305     -0.272206     -0.206502
Pb      11.53084      7.67339      4.30334        -0.345143     -0.051916     -0.940214
Pb      11.47591      7.64228     17.42322         0.061016     -0.087878     -0.398334
Pb      11.52152      7.66367      8.68113        -0.180301     -0.234097     -0.363995
Pb      11.47267      7.67891     13.02935         0.554764     -0.165175     -0.263864
Pb      11.52451     11.46832      4.35153        -0.356964      0.372597     -0.660238
Pb      11.47162     11.49691     17.40027         0.033133     -0.083816     -0.334652
Pb      11.49714     11.49930      8.73302        -0.083720      0.247437     -0.661155
Pb      11.49983     11.50361     13.01500        -0.116920     -0.306008     -0.226950
Ti       1.95465      1.95341      2.29995        -0.311423     -0.930198      2.246652
Ti       1.97011      1.91716     15.36972        -0.932556     -0.528324      0.103951
Ti       1.89666     13.42683      2.19391         0.159483      0.517921      3.053606
Ti       1.88267     13.48060     15.38024        -0.197600     -0.463687      1.297178
Ti      13.50164      1.90500      2.34452        -0.512388     -0.159057      1.218442
Ti      13.45153      1.95876     15.36593         0.127615     -1.093026      2.336453
Ti      13.40549     13.36532      2.29118        -0.319389      0.606495      2.329024
Ti      13.38780     13.45521     15.31598         0.618087     -0.260224      2.046140
Ti       1.92576      1.87280      6.64197        -0.359840      0.787516      1.891083
Ti       1.89036     13.39467      6.67004        -0.360924      0.309041      1.860828
Ti      13.45271      1.93174      6.64209        -0.207179     -0.715803      2.097556
Ti      13.39253     13.39631      6.62668         0.081030      0.538579      2.484574
Ti       1.83658      1.86831     10.96915         0.873198      0.831984      2.645416
Ti       1.88164     13.42863     10.97889        -0.121813      0.142280      2.282810
Ti      13.37786      1.85520     11.01561         0.765571      0.280967      2.279305
Ti      13.41527     13.36480     11.04018        -0.309884      0.108694      2.210660
Ti       1.84290      5.75429      2.31337         0.509970     -0.339253      2.106452
Ti       1.87540      5.72507     15.31933        -0.315917     -0.043854      1.940375
Ti      13.41106      5.75799      2.29266        -0.193436      0.083427      2.635541
Ti      13.41374      5.72825     15.34957        -0.310686      0.213776      1.787123
Ti       1.86015      5.81804      6.57630        -0.157207     -1.417377      2.441509
Ti      13.38205      5.80719      6.60829         0.425446     -0.556768      2.087286
Ti       1.88525      5.73592     11.00470         0.129641     -0.642640      1.275771
Ti      13.47383      5.66751     11.06651        -0.616046      0.460493      1.707210
Ti       1.96423      9.58752      2.27256        -1.244324     -0.164822      1.969124
Ti       1.87093      9.56858     15.32957        -0.080425      0.254799      3.173899
Ti      13.45672      9.55506      2.28178         0.222402      0.119226      1.914129
Ti      13.32292      9.57088     15.38571         0.423191     -0.201574      1.247360
Ti       1.86317      9.54224      6.60987         0.389977      0.744384      2.317024
Ti      13.33413      9.63728      6.60304         1.383367     -0.279025      2.648470
Ti       1.87069      9.60264     10.98661        -0.187706     -0.471503     -0.329298
Ti      13.41290      9.52723     10.99955        -0.133204      0.048134      2.571520
Ti       5.70955      1.82277      2.27550         0.706335      1.039302      3.489000
Ti       5.70667      1.86023     15.30572         0.635135      0.384562      1.026751
Ti       5.73965     13.38735      2.33055         0.024621     -0.257474      2.400056
Ti       5.70496     13.39042     15.29882         0.026914      0.167312      1.163132
Ti       5.67910      1.90268      6.63000         1.096523      0.002938      2.175549
Ti       5.66277     13.42720      6.60838         0.417392      0.319415      1.823089
Ti       5.69821      1.89802     11.04171         0.482532      0.139042      1.018686
Ti       5.71755     13.43293     10.98685         0.060616     -0.389581      1.096595
Ti       5.72798      5.68689      2.22926        -0.153884     -0.064718      2.717256
Ti       5.66246      5.76382     15.38365         0.529759     -0.821628      0.695052
Ti       5.69088      5.82671      6.69895         0.828438     -1.106011      1.913508
Ti       5.72328      5.71945     11.05245         0.165862     -0.169577      0.724318
Ti       5.70535      9.53857      2.29362         1.395445      0.333125      2.110061
Ti       5.76223      9.55445     15.34752        -0.698048      0.186029      1.066589
Ti       5.73251      9.60295      6.58496         0.023916      0.016485      2.166477
Ti       5.67407      9.49250     11.00986         1.451356      1.036069      1.276168
Ti       9.60059      1.88255      2.37341         0.085153      0.085067      1.381452
Ti       9.58522      1.96298     15.39999         0.051335     -1.133840      1.213786
Ti       9.55932     13.38078      2.30071         0.511459      0.185749      2.160926
Ti       9.57048     13.39066     15.34451        -0.397691      0.466809      1.338804
Ti       9.54875      1.91669      6.62458         0.097493     -0.263942      2.030172
Ti       9.49371     13.36609      6.67322         0.640892      0.601662      1.031844
Ti       9.57849      1.92584     11.01220        -0.162440     -0.643435      1.768875
Ti       9.53785     13.41913     11.02001         0.450851      0.027060      1.765675
Ti       9.52559      5.73048      2.21670         0.413134      0.381090      2.249824
Ti       9.51316      5.74959     15.35517         0.994954      0.100649      2.504496
Ti       9.53694      5.71732      6.61966        -0.012356      0.144462      2.405706
Ti       9.55959      5.72581     11.04047         0.356539      0.082727      0.840622
Ti       9.56789      9.57749      2.28249         0.012618     -0.169783      1.591386
Ti       9.52262      9.51719     15.33703         0.654121      0.836245      2.479609
Ti       9.60875      9.55188      6.63964        -0.664711      0.321082      2.293678
Ti       9.60065      9.50970     10.92516        -0.803074      1.037432      1.986252
O       2.02221      1.84548      0.62411        -0.175290      0.060238     -2.750154
O       2.04055      1.80618     13.62744        -0.260355      0.372797     -0.095039
O       1.83936     13.45667      0.51510         0.102430     -0.030807     -2.246764
O       1.84715     13.55437     13.66108         0.073195     -0.521842     -1.078785
O      13.49374      2.01770      0.64197         0.030413     -0.366376     -1.451135
O      13.50714      1.88091     13.68580        -0.363867      0.019040     -2.083818
O      13.35931     13.36272      0.60815         0.209520      0.206391     -2.217114
O      13.52994     13.50854     13.62165        -0.252324     -0.300477     -1.556480
O       1.85910      1.99281      4.93477         0.252814     -0.400426     -1.253683
O       1.86830     13.37599      4.96917         0.308889     -0.118894     -1.707463
O      13.49863      1.80303      4.94130        -0.114013      0.410823     -1.554112
O      13.34446     13.44821      4.93056         0.409894     -0.224001     -1.540931
O       2.01500      1.93785      9.30475        -0.255049     -0.180719     -2.459942
O       1.88750     13.49252      9.29053         0.267777     -0.481219     -1.724948
O      13.52817      1.96426      9.32773        -0.511532     -0.116918     -1.697867
O      13.32264     13.50047      9.37376        -0.008528     -0.448915     -2.386369
O       1.85627      5.62083      0.63672         0.086510      0.386278     -2.207104
O       1.87514      5.77597     13.60838         0.301820      0.123161     -1.325499
O      13.44560      5.77103      0.62709         0.020228     -0.282088     -3.150146
O      13.49354      5.72172     13.64774        -0.058136     -0.189170     -1.226810
O       1.82202      5.71744      4.88303         0.019636      0.042117     -1.675175
O      13.57887      5.72777      4.92110        -0.687306      0.251186     -1.438496
O       1.84373      5.83262      9.30338         0.052072     -0.076004     -1.450272
O      13.42290      5.71545      9.35560        -0.185759     -0.012895     -1.479782
O       1.75129      9.63799      0.59083         0.812386     -0.545140     -1.683808
O       1.91620      9.59874     13.63989        -0.106527     -0.211970     -2.010011
O      13.28780      9.51356      0.59284         0.362930      0.047046     -1.939637
O      13.33640      9.55370     13.68880         0.271450      0.011830     -1.509525
O       2.06388      9.49064      4.92159        -0.454736      0.581343     -1.822658
O      13.47796      9.61658      4.92722        -0.297703     -0.102549     -2.291578
O       1.84321      9.55569      9.19481         0.228285      0.312009      1.111220
O      13.31424      9.58957      9.31570         0.097539     -0.064111     -2.048519
O       5.66878      1.70907      0.60894         0.206199      0.174583     -2.759175
O       5.71911      1.87413     13.57732        -0.114598      0.199222     -0.582917
O       5.63032     13.33690      0.64912         0.533150      0.232193     -2.610695
O       5.71673     13.41334     13.59045        -0.001238     -0.062623     -1.271238
O       5.66195      1.87995      4.93263         0.177870     -0.131397     -1.741413
O       5.51854     13.50341      4.91809         0.337519     -0.149536     -2.048694
O       5.77064      1.93793      9.33976        -0.149335      0.104097     -1.761180
O       5.71335     13.43233      9.26132        -0.005279     -0.145158     -0.872691
O       5.86087      5.76794      0.53937        -0.418149     -0.062360     -2.007130
O       5.76483      5.72639     13.64119        -0.343369      0.127646     -0.364042
O       5.83855      5.83010      5.04081        -0.301428      0.053192     -2.614841
O       5.72809      5.77692      9.34623        -0.003751     -0.092217     -2.276552
O       5.67190      9.60583      0.59273         0.008605     -0.241868     -1.933078
O       5.80370      9.59305     13.63572        -0.300088     -0.387350     -1.213662
O       5.86644      9.41904      4.90025        -0.412958      0.207202     -1.653561
O       5.73509      9.49799      9.30329        -0.143244      0.180156     -1.344421
O       9.63889      1.82463      0.68212        -0.307331     -0.019481     -2.229781
O       9.62021      2.00089     13.70643        -0.084757     -0.122324     -1.471668
O       9.57769     13.40527      0.60168        -0.298152      0.061024     -2.098989
O       9.44655     13.36365     13.63366         0.221268     -0.031106     -0.991282
O       9.55641      2.11449      4.92229         0.230031     -0.460603     -1.675363
O       9.58751     13.31696      4.98559         0.068954     -0.131197     -1.738423
O       9.62261      1.90038      9.30526        -0.002479      0.124426     -1.138251
O       9.55461     13.47596      9.31114        -0.052781     -0.123806     -1.711832
O       9.57413      5.92942      0.51007        -0.467602     -0.674866     -1.264252
O       9.41102      5.62092     13.67198         0.343606      0.385968     -1.950378
O       9.63520      5.71897      4.93830         0.007423     -0.165148     -2.008488
O       9.58707      5.73409      9.32530         0.024225     -0.262171     -0.807352
O       9.48924      9.55813      0.57301         0.143360     -0.065579     -1.287692
O       9.54863      9.65706     13.66159        -0.083035     -0.319658     -2.062008
O       9.63244      9.74773      4.96134         0.095059     -0.340371     -2.166367
O       9.51231      9.61818      9.20763         0.461701     -0.125055     -0.750743
O       3.83223      1.89440      2.78070         0.324579     -0.442440     -0.016309
O       3.83877      1.89369     15.82007         0.379560      0.221725      0.149512
O       3.86989     13.41414      2.70180        -0.622458      0.253693      0.162924
O       3.82911     13.44709     15.76171         0.119662     -0.851134      0.155434
O       0.03781      1.87997      2.72455        -0.463142      0.088617      0.145072
O       0.00139      1.84826     15.69239         0.526286     -0.154855      0.735462
O       0.01900     13.45083      2.77332        -0.321528     -0.538774     -0.239899
O      15.31630     13.39262     15.77408         0.205789      0.408595      0.338393
O       3.82900      1.96102      7.09020        -0.417955     -0.113478      0.128193
O       3.79758     13.54555      7.11163        -0.248554     -0.966420      0.325253
O       0.00791      1.85408      7.12260        -0.350616      0.485096      0.028385
O       0.00600     13.38641      7.10854        -0.526894     -0.062530      0.066717
O       3.83164      1.96463     11.47449        -0.351411     -0.373241      0.050559
O       3.79302     13.42587     11.42069         0.207137     -0.222990      0.107528
O      15.31260      1.93258     11.49206         0.047161     -0.577533     -0.217990
O      15.32272     13.32219     11.37140         0.066254      0.171695      0.372933
O       3.79989      5.68275      2.74362         0.413059      0.357929     -0.167085
O       3.76793      5.70859     15.87852         0.129097     -0.069815     -0.218142
O      15.30990      5.78025      2.69708         0.736405     -0.414641      0.324354
O       0.00796      5.62440     15.75553        -0.569834      0.423124      0.245119
O       3.75217      5.77861      7.04989         0.192860      0.231266      0.100854
O      15.28898      5.76643      7.10139        -0.066819      0.188767      0.039595
O       3.83142      5.78941     11.38333        -0.705445     -0.139835      0.686471
O      15.34565      5.64640     11.41240         0.044128      0.350491      0.461560
O       3.88101      9.45952      2.75739        -0.691964      0.565984     -0.228212
O       3.78060      9.51665     15.78454         0.044119      0.182471      0.205715
O       0.07524      9.62719      2.66403        -0.523663     -0.115197      0.519045
O      15.29028      9.41601     15.83383         0.034473      0.831180     -0.416697
O       3.81016      9.54471      7.00689         0.172408      0.098485      0.334548
O      15.29416      9.68970      7.05444         0.106571     -0.468091      0.000624
O       3.80107      9.58623     11.42152        -0.570433     -0.380361      0.218553
O      15.32351      9.55685     11.39451         0.714240      0.286127      0.249660
O       7.71568      1.88961      2.77822        -0.555522      0.180035     -0.035028
O       7.64315      1.90669     15.76013        -0.147389      0.083769      0.425318
O       7.66279     13.31303      2.84317         0.209790      0.401005     -0.497241
O       7.63116     13.33496     15.79912        -0.218984      0.387962      0.242679
O       7.63975      1.90068      7.12759        -0.120249      0.094993     -0.056108
O       7.58931     13.40143      7.02018         0.286061      0.022283      0.380483
O       7.71103      1.84278     11.45221        -0.413134      0.141741      0.123124
O       7.61585     13.50100     11.52137         0.192594     -0.475922     -0.397910
O       7.59844      5.71435      2.77178         0.541192     -0.229045     -0.357588
O       7.63008      5.68013     15.80230        -0.210600      0.427332      0.153162
O       7.65605      5.82695      7.09915         0.137284     -0.330027      0.262694
O       7.67034      5.80468     11.47359         0.283972     -0.406940      0.168715
O       7.69453      9.61963      2.76750        -0.400812     -0.141923     -0.157282
O       7.60652      9.46644     15.81405         0.002276      0.182086     -0.012542
O       7.68951      9.66007      7.11385        -0.572280     -0.473198     -0.066840
O       7.71832      9.48012     11.43577        -0.331683      0.338571     -0.015782
O      11.53989      1.89726      2.71434         0.061369      0.141767      0.659816
O      11.53633      1.76706     15.86499        -0.627852      1.006110     -0.211380
O      11.51256     13.32840      2.74871         0.018340      0.527706      0.109088
O      11.48305     13.42266     15.70659        -0.214895     -0.209812      0.146938
O      11.56377      1.86504      7.08345        -0.636751      0.129281     -0.074651
O      11.51796     13.42230      7.04718        -0.521531      0.134334      0.567528
O      11.53289      1.84954     11.64225        -0.510834      0.617244     -0.851089
O      11.48973     13.31955     11.50297        -0.109607      0.547834      0.029063
O      11.48169      5.80337      2.58301        -0.196469      0.121893      0.685938
O      11.44607      5.64758     15.80480         0.544124      0.223916     -0.127865
O      11.45357      5.63638      7.15759         0.403821      0.733916     -0.365870
O      11.51973      5.63772     11.51794        -0.458897      0.319705     -0.051417
O      11.54213      9.48489      2.67877        -0.370335      0.071416      0.521919
O      11.44622      9.52875     15.73712        -0.064485      0.234054      0.501132
O      11.50145      9.63663      7.09891        -0.387768     -0.164724      0.087604
O      11.51319      9.44191     11.47253        -0.663825      0.631034     -0.152204
O       1.90570      3.79588      2.68814        -0.148109      0.578177      0.431990
O       1.90643      3.79354     15.79465         0.249680      0.080650     -0.011756
O       1.89872     15.29513      2.71339         0.287488      0.377061      0.119250
O       2.03456     15.31762     15.74969        -0.656876      0.641695      0.609120
O      13.40173      3.86208      2.80997         0.265657     -0.613796     -0.064736
O      13.45912      3.77356     15.87039        -0.436685      0.699684     -0.047093
O      13.43072     15.30819      2.72719         0.053258      0.427038      0.017334
O      13.39386     15.32682     15.87258         0.400593     -0.157248     -0.000274
O       1.83200      3.85089      7.05106         0.251185      0.097897      0.187294
O       1.90718     15.35975      7.12966        -0.022205     -0.045491     -0.217951
O      13.37413      3.85986      7.07792         0.448486     -0.362335     -0.092062
O      13.48435     15.31846      7.14731        -0.223349      0.158305     -0.043729
O       1.90151      3.77541     11.32696         0.123831      0.657987      0.695546
O       1.87807     15.34241     11.40545        -0.003073     -0.413878      0.086746
O      13.48605      3.76976     11.56654        -0.618816      0.074178     -0.277954
O      13.34941     15.30191     11.40079         0.353384      0.288421      0.288139
O       1.89419      7.66675      2.85635         0.257638     -0.073391     -0.880617
O       1.80366      7.62226     15.94029         0.931455     -0.087664     -0.710122
O      13.54194      7.67592      2.76055        -0.480620      0.002258      0.265574
O      13.28860      7.58850     15.69656         0.519991      0.188371      0.571689
O       1.78842      7.69870      7.03499         0.108405     -0.495277      0.105915
O      13.32982      7.67316      7.12400         0.053425      0.131091     -0.314769
O       1.83073      7.63625     11.40487         0.269654      1.000850      0.443630
O      13.46268      7.63779     11.52761        -0.108211     -0.534654     -0.079985
O       1.95792     11.51328      2.64071         0.360847     -0.246181      0.468596
O       1.86171     11.44899     15.88501         0.071388      0.105762     -0.594580
O      13.46341     11.47673      2.68653         0.117737     -0.193967      0.359807
O      13.46212     11.48593     15.85877        -0.494224      0.071079     -0.367783
O       1.94273     11.49823      7.14624         0.095088     -0.014847     -0.103786
O      13.39547     11.48452      7.13158        -0.101514      0.627534     -0.004860
O       1.90935     11.52692     11.55661        -0.006940     -0.721394     -0.536489
O      13.36363     11.37888     11.55186         0.307310      0.926649     -0.274998
O       5.71267      3.75142      2.69043         0.189575      0.394611     -0.101544
O       5.75246      3.80481     15.89111        -0.272335     -0.131547     -0.304295
O       5.98035     15.34454      2.76888        -1.404802     -0.592985     -0.442300
O       5.67707     15.33064     15.70420         0.569826     -0.065225      0.389675
O       5.76756      3.84746      6.93763        -0.220456      0.146581      0.842055
O       5.68480     15.32641      7.05474         0.287481      0.631754      0.322502
O       5.73650      3.85640     11.39959         0.218870     -0.625734      0.623131
O       5.69471     15.35173     11.33419         0.032017     -0.414316      0.514524
O       5.77767      7.59247      2.74660        -0.103423      0.463297     -0.350732
O       5.52806      7.60715     15.73771         0.886665      0.481968      0.256186
O       5.74065      7.71086      7.16051        -0.027631     -0.038641      0.050968
O       5.74516      7.61074     11.37155        -0.189619      0.919038      1.060021
O       5.76854     11.44893      2.70911        -0.488082      0.050948      0.342436
O       5.75006     11.46725     15.67469        -0.341809     -0.086726      0.595351
O       5.72602     11.50759      6.86891        -0.480090     -0.270137      0.652364
O       5.71783     11.44093     11.33317         0.071326      0.597495      0.513026
O       9.57615      3.85211      2.68150         0.205731     -0.022521      0.014240
O       9.65184      3.84377     15.84170        -0.664430     -0.485975      0.329298
O       9.63728     15.28500      2.79544        -0.373638      0.286096      0.087445
O       9.48839     15.33759     15.67562         0.186990     -0.325124      0.628652
O       9.52318      3.79055      7.06269         0.138933      0.495548      0.504924
O       9.46502      0.01924      6.96740         0.585387     -0.572960      0.487412
O       9.53277      3.76437     11.58423         0.347821      0.791966     -0.611541
O       9.60956     15.31925     11.44261         0.194392      0.321737      0.380938
O       9.49059      7.64839      2.67607         0.373523     -0.027512      0.394207
O       9.58210      7.65567     15.81826        -0.312225     -0.495927     -0.349207
O       9.60728      7.66375      6.95721         0.277421     -0.073961      0.398893
O       9.60581      7.67442     11.36724         0.173323     -1.085291      0.376291
O       9.69258     11.50729      2.67122        -0.391409     -0.763118      0.244086
O       9.58216     11.43959     15.83561        -0.399875      0.465523      0.016078
O       9.55903     11.49446      7.12879         0.207372      0.297182      0.446538
O       9.59616     11.54149     11.42689        -0.302788     -1.058118     -0.039247
