  # total energy = -7880.92351372 
CRSYTAL
PRIMVEC
    15.6000000000000000    0.0000000000000000    0.0000000000000000
     0.0000000000000000   15.6000000000000000    0.0000000000000000
     0.0000000000000000    0.0000000000000000    17.640000000000000
PRESSURE
-5.82213 -6.01477 -7.07886 0.067201 -0.169679 -0.013963
PRIMCOORD
320 1
Pb       3.96129      3.90245      4.31866        -0.473590     -0.487769     -0.022177
Pb       3.92394      3.80837     17.58143        -0.345029      0.278050     -0.210191
Pb       3.84716     15.55813      4.40948        -0.136694     -0.040851     -0.529539
Pb       3.90694      0.04957     17.60885        -0.105373     -0.595736      0.043844
Pb      15.51925      3.84845      4.31332         0.119612     -0.066395      0.154565
Pb       0.02339      3.78890     17.51167         0.005111      0.308307      0.653279
Pb       0.01638      0.01703      4.34514        -0.164396     -0.062492      0.074340
Pb       0.03127     15.57342      0.03053        -0.464662     -0.152346     -0.253981
Pb       3.87041      3.88466      8.74378        -0.362991      0.239567      0.083508
Pb       3.88362      0.02683      8.79391        -0.293448     -0.519354     -0.158841
Pb       0.03324      3.86124      8.82798        -0.246754      0.183360     -0.615756
Pb      15.56407      0.10527      8.78225        -0.004347     -0.550983      0.041034
Pb       3.86482      3.96105     13.16201        -0.298018     -0.082895      0.145369
Pb       3.96662      0.08958     13.18828        -0.402692     -0.381959     -0.129997
Pb       0.01828      3.90252     13.23205        -0.094409      0.093530     -0.547098
Pb      15.53132     15.55166     13.22531        -0.000424      0.048741     -0.612916
Pb       3.92351      7.76582      4.27274        -0.223700      0.331352      0.041122
Pb       3.89739      7.75752     17.56755        -0.240785      0.110544     -0.457899
Pb      15.56350      7.58956      4.36412        -0.023305      0.480604     -0.396133
Pb      15.57021      7.75876     17.56984         0.024558      0.091258     -0.123655
Pb       3.79948      7.74335      8.75236         0.287550      0.150505      0.144223
Pb       0.04474      7.84858      8.69585        -0.683980     -0.237844      0.013263
Pb       3.90449      7.82330     13.18203        -0.124785      0.203584     -0.159287
Pb      15.57296      7.75974     13.16246        -0.333366      0.097045      0.000020
Pb       3.90252     11.60857      4.31669        -0.057565      0.154272     -0.047330
Pb       3.84168     11.64806     17.55575         0.135883      0.267954     -0.275220
Pb       0.07387     11.73284      4.41055        -0.381856     -0.142018     -0.223980
Pb       0.03732     11.63212     17.62036        -0.161674     -0.004985     -0.195031
Pb       3.86441     11.75745      8.81047         0.016589      0.126831     -0.142242
Pb       0.01238     11.56745      8.72834         0.026536      0.472029      0.095236
Pb       3.91751     11.58560     13.19600         0.340696      0.351065     -0.348017
Pb       0.04181     11.71091     13.21957        -0.679551     -0.105644     -0.057365
Pb       7.74993      3.86369      4.27668         0.101046      0.266601      0.739692
Pb       7.83833      3.87182     17.63424         0.038077      0.277187     -0.752345
Pb       7.79667     15.58148      4.38966         0.099103     -0.340032      0.038323
Pb       7.76847     15.55662     17.57154         0.173518     -0.549122      0.109538
Pb       7.82718      3.89895      8.77682        -0.008166      0.382197      0.133996
Pb       7.72170      0.06340      8.74750         0.247330     -0.688999      0.036247
Pb       7.64883      3.82910     13.22038         0.516063      0.221699      0.034629
Pb       7.79098      0.02696     13.11580        -0.021696      0.116306      0.208106
Pb       7.72354      7.70339      4.31319         0.051706      0.295617      0.508669
Pb       7.78124      7.72833     17.50554         0.282897     -0.139630     -0.028676
Pb       7.79416      7.82360      8.79342         0.154881     -0.086189     -0.030805
Pb       7.85806      7.67074     13.23390         0.290343      0.266444     -0.749892
Pb       7.70515     11.56476      4.28999        -0.010507      0.044441      0.074301
Pb       7.79144     11.62737     17.47237         0.204815      0.921187      0.289672
Pb       7.76868     11.65086      8.64947        -0.131556      0.214544      0.553409
Pb       7.74432     11.64527     13.18663        -0.283496     -0.176779     -0.859897
Pb      11.74316      3.81401      4.25450        -0.317259      0.607621      0.426347
Pb      11.56992      3.83609     17.55682         0.501734      0.671432      0.527053
Pb      11.76714      0.03441      4.29526        -0.377159     -0.147921      0.813662
Pb      11.78725      0.03422     17.58832        -0.111837     -0.353655     -0.248413
Pb      11.70341      3.88021      8.77047         0.448691      0.200113     -0.851132
Pb      11.56109      0.02668      8.78259         0.538453     -0.684671     -0.123355
Pb      11.65932      3.82403     13.17610        -0.008917      0.475634     -0.124160
Pb      11.67638      0.08179     13.23431         0.090514     -0.408367     -0.825546
Pb      11.61812      7.81998      4.41104         0.543114     -0.014433     -0.171369
Pb      11.75957      7.83001      0.00067        -0.197531     -0.352230     -0.436450
Pb      11.74852      7.80199      8.77826         0.051182      0.117112     -0.248744
Pb      11.66489      7.84830     13.14285        -0.195000     -0.216608      0.159938
Pb      11.68193     11.60827      4.48523         0.264929     -0.376738     -0.164625
Pb      11.57598     11.75040      0.07655        -0.136239     -0.310294     -0.634424
Pb      11.56403     11.76920      8.90710         0.430457      0.047256     -0.205864
Pb      11.71420     11.68367     13.34505         0.379264      0.146944     -0.755970
Ti       1.89430      1.89206      2.30257         0.325798      0.552586     -0.531011
Ti       1.87709      1.89307     15.64222         0.441604      0.488686      0.017327
Ti       1.92376     13.56807      2.37780         0.001770      0.639806     -0.538196
Ti       1.80924     13.64049     15.65895         0.671429      0.545561     -0.057186
Ti      13.54694      1.84028      2.40665         1.039143      1.357984     -0.600948
Ti      13.59038      2.00949     15.56759         0.545256     -0.859698     -1.037668
Ti      13.55123     13.55334      2.39010         0.922266     -0.052883     -0.721321
Ti      13.51808     13.54889     15.67698        -0.080796      0.183697     -1.533326
Ti       1.93124      1.92601      6.76433        -0.216219      0.169433     -0.309486
Ti       1.93514     13.60791      6.72640         0.050600     -0.283807      0.122764
Ti      13.67059      1.86665      6.77205         0.337635      0.833354     -1.185405
Ti      13.67717     13.60391      6.72067         0.223344      0.471927      1.178314
Ti       1.90707      1.96813     11.25108        -0.588238     -0.036453     -1.654553
Ti       1.91477     13.65891     11.21937         0.445540      0.162598     -0.972806
Ti      13.60812      2.02272     11.20226         0.361237     -0.994897     -1.122463
Ti      13.59577     13.63308     11.20190        -0.273597      0.219008     -0.652362
Ti       1.99775      5.77956      2.38730        -1.004211     -0.059268      0.014063
Ti       1.92778      5.84373     15.58349         0.198194     -0.144517     -0.855377
Ti      13.63145      5.84692      2.31057        -0.249135     -0.446320      0.941703
Ti      13.69426      5.73286     15.55898        -1.741634      1.567334     -0.368753
Ti       1.89693      5.84859      6.65840        -0.544124     -0.415422      0.812933
Ti      13.61695      5.90713      6.64135        -0.183964     -0.907488      0.812484
Ti       1.87032      5.96615     11.17645         0.465575     -0.943754     -0.858593
Ti      13.51188      5.83101     11.11345         1.102949      0.358607     -0.379204
Ti       1.90248      9.73025      2.31933        -0.033822     -0.594399     -1.003281
Ti       1.95236      9.74136     15.62010        -0.162969     -0.413311     -0.676959
Ti      13.67491      9.70098      2.26230        -0.418818      0.093966      0.509221
Ti      13.62711      9.68042     15.62439        -0.144615      0.179015     -1.304952
Ti       1.91951      9.69385      6.69267        -0.007516      0.808824      0.502197
Ti      13.56753      9.86580      6.83722        -0.169547     -0.592253     -0.966103
Ti       1.90256      9.79846     11.25768         0.081765     -0.097776     -1.640093
Ti      13.61611      9.72538     11.26958        -0.053769      0.098585     -2.108157
Ti       5.82762      1.88715      2.35449        -0.811285     -0.084834     -0.630075
Ti       5.88182      1.86043     15.66971        -0.396158      1.210797     -1.350351
Ti       5.84152     13.65037      2.45007        -0.599127     -0.149113     -1.150201
Ti       5.77886     13.69484     15.46643         0.289900     -0.743605      1.064105
Ti       5.86608      1.95874      6.77573        -1.021422      0.335128     -0.273407
Ti       5.84234     13.68802      6.67078        -0.242444     -0.250502      1.445986
Ti       5.79157      1.93647     11.16514         1.064158      0.985952     -0.283690
Ti       5.82459     13.70759     11.17071        -0.993479     -1.309975     -1.051027
Ti       5.85871      5.84337      2.26314        -0.036277      0.005472      0.199417
Ti       5.84265      5.81081     15.50155         0.344559     -0.608972      0.223669
Ti       5.81891      5.85554      6.83717         0.632747      0.604943     -0.476814
Ti       5.79748      5.82811     11.27045         0.298394      0.277460     -1.234184
Ti       5.84595      9.69876      2.22610        -0.206041      0.405152      1.457701
Ti       5.90925      9.75695     15.57521        -1.286093      0.451431     -0.976835
Ti       5.76776      9.78020      6.76267         0.173427     -0.517046      0.015749
Ti       5.81456      9.71105     11.10334         0.513012      0.447486     -0.236366
Ti       9.62256      1.82165      2.28142         0.642615      0.970238     -0.023811
Ti       9.74366      1.90249     15.56852        -0.458393      0.312643      0.492132
Ti       9.75060     13.51259      2.45101        -0.554140     -0.063465     -1.035928
Ti       9.68451     13.68737     15.47451        -0.114220     -0.105894      0.421455
Ti       9.73262      1.90362      6.77083         0.702173     -0.010217     -0.658799
Ti       9.76502     13.58547      6.70846        -0.064213      0.679202      0.964817
Ti       9.66769      2.02935     11.17263        -0.044765     -0.163641     -0.157892
Ti       9.70023     13.65207     11.26559         0.880014     -0.073280     -1.147139
Ti       9.72256      5.82298      2.36777         0.618634     -0.316806     -0.580131
Ti       9.78424      5.87810     15.58585         0.380277     -0.338876     -0.841842
Ti       9.75122      5.82127      6.72863         0.362423      0.032211     -0.571503
Ti       9.72424      5.84957     11.16702        -0.650111      0.159994     -0.278403
Ti       9.76552      9.71400      2.34356         0.304662     -0.155732     -1.286221
Ti       9.75420      9.73545     15.54471         0.755890     -0.381258     -0.919773
Ti       9.73609      9.74009      6.75602         0.537147     -0.599621      1.358074
Ti       9.73963      9.80028     11.15308        -0.712884     -0.506767     -0.775541
O       1.82491      1.95410      0.42242        -0.171113     -0.056757      2.074522
O       1.91288      1.93052     13.87761         0.081692     -0.134728     -0.060466
O       1.89323     13.61430      0.57348         0.104978     -0.201531      0.657303
O       1.72766     13.77511     13.92119         0.139705     -0.263536      0.223838
O      13.58310      1.85622      0.62048         0.060534     -0.112860      0.511768
O      13.58375      2.09393     13.74930        -0.297082     -0.407249      1.592641
O      13.44877     13.67678      0.58277         0.052366     -0.135923      0.784199
O      13.49193     13.46792     13.81767         0.310254      0.566659      2.189328
O       1.85876      1.97976      4.98117         0.405393     -0.399304      1.317204
O       1.98230     13.52538      4.92731        -0.169568      0.328784      0.858627
O      13.78038      1.79114      4.88754        -0.590271      0.298095      1.620908
O      13.79272     13.63302      4.96581        -0.470817     -0.320354      0.080317
O       1.86819      1.94187      9.38837         0.040066      0.189993      2.196897
O       2.08527     13.58442      9.43195        -0.525174      0.128883      1.378656
O      13.70557      1.98158      9.38270        -0.219088      0.020274      1.239861
O      13.56992     13.68686      9.42361         0.094759     -0.214153      1.075321
O       1.97631      5.68809      0.64112        -0.111371      0.447018      0.240571
O       1.88977      5.84638     13.75686         0.003043      0.120429      1.931576
O      13.50290      5.85422      0.58101         0.652584      0.182780      0.022415
O      13.58342      5.77734     13.76367         0.352519     -0.151692      1.478120
O       1.89097      5.96290      4.88651         0.422360     -0.338198      0.419878
O      13.57103      5.85565      4.86173         0.123010      0.112032      0.870296
O       1.98714      5.77483      9.34969        -0.313223      0.527031      2.003642
O      13.58396      5.89648      9.32011        -0.067941     -0.255519      1.372524
O       1.96209      9.81542      0.45160        -0.138688     -0.036269      1.891760
O       1.96418      9.71191     13.81679         0.002509      0.170183      0.801845
O      13.50336      9.68540      0.48792         0.644606     -0.094730      0.534065
O      13.60979      9.72614     13.79108        -0.308209     -0.155466      1.285008
O       1.87098      9.77760      4.95721         0.223855     -0.278628     -0.155695
O      13.45540      9.96737      5.01965         0.296850     -0.288503      1.220863
O       1.91326      9.85547      9.41741        -0.356556     -0.430181      1.495958
O      13.59245      9.65213      9.37092         0.469887      0.318771      2.205232
O       5.85110      1.85011      0.52911        -0.035752      0.095003      1.617825
O       5.84521      1.91579     13.84046        -0.295728     -0.279455      1.576447
O       5.81761     13.73094      0.66281         0.075097     -0.156746      1.146598
O       5.84642     13.72223     13.71598         0.039595      0.062882      0.386520
O       5.69983      2.08250      4.98802         0.490352     -0.708098      1.172225
O       5.86010     13.75764      4.91226        -0.147404     -0.236803      0.352101
O       5.92959      2.02086      9.39240        -0.313295     -0.182844      0.611092
O       5.57728     13.59075      9.36581         0.929011      0.470293      2.070657
O       5.89258      5.90509      0.49815        -0.018205     -0.136338      0.908591
O       5.89785      5.75588     13.71065        -0.493941      0.345253      1.672152
O       5.96504      5.95823      5.02536        -0.567911     -0.165163      1.540760
O       5.79453      5.80274      9.45888        -0.089841     -0.060012      1.103396
O       5.77930      9.66187      0.48855         0.075873      0.296617     -0.095727
O       5.74979      9.85945     13.78118         0.345525     -0.377065      1.404968
O       5.91881      9.66104      4.95073        -0.299087      0.291476      1.591810
O       5.82773      9.70767      9.31131        -0.038399      0.144275      1.153491
O       9.71282      1.94865      0.48364        -0.333383     -0.242056      1.417872
O       9.81844      1.99713     13.81279        -0.135701     -0.218125      0.659938
O       9.73022     13.34202      0.63112         0.123794      0.681461      2.104230
O       9.72353     13.77578     13.70025        -0.034234     -0.259839      0.730307
O       9.83613      1.77601      4.99433        -0.510610      0.271061      1.389547
O       9.75141     13.55740      4.97634        -0.116341      0.257259     -0.510430
O       9.61700      2.11041      9.38591         0.334750     -0.666180      0.535450
O       9.83984     13.57877      9.42280        -0.476972      0.286537      1.802102
O       9.56380      5.81413      0.53914         0.222633     -0.000065      2.089550
O       9.80244      5.98590     13.75869         0.012373     -0.325409      1.374041
O       9.77449      5.77602      4.89836        -0.304868      0.332887      1.422688
O       9.67510      5.89490      9.38605         0.232070     -0.455401      1.384151
O       9.76444      9.81111      0.52102        -0.109821     -0.294365      1.648830
O       9.86084      9.53853     13.71639        -0.580775      0.768625      1.838333
O       9.95542      9.65323      5.00425        -0.461671      0.355734      0.175469
O       9.64197      9.81148      9.30049         0.337187      0.273235      2.069256
O       3.77820      1.97539      2.75456         1.344618     -0.229842     -0.151128
O       3.79536      1.91558     16.12859         0.821277     -0.222879     -0.528596
O       3.92585     13.54842      2.88899        -0.404291      0.416668     -0.324776
O       3.90405     13.77402     15.93226        -0.354168     -0.180769     -0.017842
O       0.04906      1.95122      2.88833        -0.225719     -0.478863     -1.054542
O      15.50322      1.97129     15.88300        -0.260950      0.045838      0.437009
O       0.00096     13.56301      2.79132         0.213341      0.393235     -0.331964
O      15.53474     13.57343     16.17610        -0.484304      0.113853     -0.421449
O       3.87461      1.95107      7.24979         0.221179      0.227803     -0.483497
O       3.88368     13.67310      7.24226        -0.331229     -0.276492     -0.864909
O      15.58061      1.88330      7.28575         0.292994      0.232967     -0.402794
O      15.59085     13.52529      7.14125         0.462611      0.529725     -0.054305
O       3.93375      1.95444     11.63847        -1.013882      0.061888     -0.286076
O       3.94471     13.68078     11.70214        -0.694972      0.154203     -0.079005
O      15.50850      1.95899     11.61122         0.964341      0.002400      0.177038
O      15.56195     13.65884     11.68850         0.188746     -0.019991     -0.282606
O       3.93388      5.85769      2.76324         0.514202      0.109939     -0.180246
O       3.81444      5.78479     16.01736         0.839306      0.459888     -0.453599
O      15.55163      5.76095      2.76687         0.493138      0.365366     -0.247304
O      15.50144      5.85695     16.05361         1.199788     -0.080911     -0.251603
O       3.79414      5.84005      7.23221         1.222250     -0.130081     -0.657088
O       0.02022      5.97524      7.03602        -0.672936     -0.158369     -0.031323
O       3.85269      5.92681     11.73575         0.015765     -0.662311     -0.452554
O       0.02617      5.88439     11.56623        -0.356781     -0.190861     -0.117932
O       3.87395      9.75505      2.73508         0.239611     -0.366890     -0.226838
O       3.83983      9.71392     16.01557         0.796280      0.327099      0.016299
O       0.01458      9.62602      2.69061        -0.229621      0.780736     -0.289469
O      15.57901      9.66628     15.94221        -0.215688      0.595531      0.382482
O       3.85821      9.73495      7.13828         0.222308     -0.366961     -0.508231
O      15.50270      9.74030      7.12517         0.851682     -0.237444      0.215699
O       3.79722      9.81378     11.61308         0.648550     -0.354223      0.015630
O      15.54890      9.68800     11.73258         0.307814      0.310005     -0.445600
O       7.71698      1.84402      2.88608         0.021673      0.112522     -0.858020
O       7.73234      1.96925     15.95196         0.820761      0.045301      0.202718
O       7.77671     13.60260      2.83846         0.854990      0.061479      0.011682
O       7.79675     13.68604     16.03264        -0.130428     -0.415623     -0.434122
O       7.79654      1.84496      7.25787        -0.286446      0.450678     -0.983889
O       7.73384     13.70402      7.10087        -0.247577     -0.012762     -0.033434
O       7.75736      2.02066     11.70117        -0.333872     -0.448460     -0.443270
O       7.75923     13.63500     11.59953        -0.181876      0.058342     -0.163642
O       7.76442      5.86537      2.84047        -0.199934     -0.208065     -0.670214
O       7.82163      5.73171     15.89915        -1.305779      0.316368      0.120103
O       7.84935      5.89225      7.30685        -0.767749     -0.232525     -0.798699
O       7.77816      5.80762     11.72243        -0.011328      0.599715     -0.476072
O       7.78934      9.72927      2.63409         0.157812      0.062549      0.128467
O       7.79876      9.77400     16.01128        -0.270953     -0.427121     -0.501951
O       7.84796      9.75934      7.21107        -0.671654     -0.142646     -0.725116
O       7.73202      9.78550     11.59116         0.290967     -0.248316     -0.091286
O      11.66162      1.94659      2.78196        -0.273299     -0.489926     -0.547668
O      11.64869      1.89793     16.00177         0.341998      0.227194     -0.208497
O      11.69463     13.57459      2.97929        -0.306236      0.254865     -0.992284
O      11.55815     13.62078     16.02053         0.727417      0.164402     -0.060373
O      11.78685      1.89568      7.25017        -1.055535      0.211830     -0.334461
O      11.70504     13.67159      7.17468        -0.194368     -0.217841     -0.343907
O      11.64981      2.00913     11.60692        -0.152079     -0.098453     -0.217433
O      11.65724     13.61678     11.61644        -0.259218      0.154979      0.173255
O      11.65937      5.64181      2.68087        -1.001364      0.524853     -0.122908
O      11.68665      5.84946     16.15092         0.014925     -0.101569     -0.775967
O      11.71214      5.75493      7.14529        -0.574277      0.196519     -0.107773
O      11.65959      5.77987     11.52932        -0.344617      0.015162     -0.214180
O      11.76276      9.69561      2.72542        -0.534939      0.206341     -0.044384
O      11.57761      9.62883     16.01043         0.472375      0.039000     -0.261033
O      11.69493      9.91120      7.33608        -1.047780     -0.373948     -0.612919
O      11.66428      9.69151     11.51057         0.083675      0.344552      0.095953
O       1.99020      3.84947      2.85697        -0.209546      0.482603     -0.524567
O       1.90341      3.93350     16.05434        -0.278236     -0.081675     -0.396451
O       2.02856     15.54411      2.72505        -0.404875      0.296494     -0.101804
O       1.79855      0.04535     16.11020         0.117781     -0.997421     -0.253745
O      13.65219      3.86590      2.83221        -0.028520     -0.644016     -0.446575
O      13.62011      3.90941     16.03860        -0.300941     -0.947470     -0.275219
O      13.66821     15.56378      2.79043        -0.158956     -0.167164     -0.217261
O      13.55749     15.55965     16.00185         0.144656      0.227613     -0.176718
O       1.82481      3.87617      7.26229         0.494797      0.086887     -0.781302
O       1.96129     15.55718      7.19761        -0.278960      0.127514     -0.394759
O      13.70601      3.92086      7.13204         0.000158     -0.286041     -0.104166
O      13.69996     15.59565      7.12129        -0.045681     -0.488471      0.168166
O       1.90698      3.90696     11.69785         0.247989     -0.482318     -0.412168
O       1.88671      0.01855     11.61040         0.176720      0.239664      0.174460
O      13.63005      3.89922     11.63662        -0.024270      0.439135     -0.439560
O      13.57639     15.57484     11.59124        -0.006781      0.346620      0.399231
O       1.87473      7.79314      2.80840         0.721474     -0.160468     -0.544057
O       1.95419      7.81106     16.12821        -0.297712     -0.935152     -0.442346
O      13.64602      7.77411      2.82161        -0.219499      0.003206     -0.653913
O      13.66529      7.81060     16.04150        -0.365336     -0.501344     -0.046979
O       1.89288      7.75166      7.23310         0.493241      0.817183     -0.603228
O      13.48910      7.81883      7.13104         0.327183     -0.047035     -0.302465
O       1.95084      7.86531     11.59333        -0.094775     -0.560487     -0.115777
O      13.64393      7.73172     11.62046        -0.183843      0.059079     -0.169449
O       1.98915     11.67689      2.76253        -0.321396     -0.641160     -0.133610
O       1.92266     11.70359     16.02710         0.038816      0.147409     -0.115706
O      13.71499     11.69521      2.63525        -0.321253     -0.522668      0.066347
O      13.48512     11.62949     16.00195         0.380187      0.432431      0.194797
O       1.89565     11.63071      7.11839         0.170455      0.269336      0.019607
O      13.66343     11.72593      7.32358        -0.296208      0.256032     -0.558815
O       1.87961     11.73987     11.65576         0.077681      0.053609      0.117681
O      13.63134     11.63531     11.71682        -0.081991      0.087407     -0.501554
O       5.82317      3.86942      2.78851         0.213507      0.313499     -0.654421
O       5.78241      3.87356     16.09775         0.083002      0.361096     -0.567724
O       5.78622      0.01504      2.87516        -0.044756      0.268705     -0.235991
O       5.93974     15.57898     16.12733        -0.760285      0.146816     -0.748163
O       5.87192      3.90287      7.21009        -0.120495      0.052640     -0.312606
O       5.73983     15.59366      7.31938         0.593227      0.453992     -1.015452
O       5.84415      3.91135     11.72375        -0.546331     -0.306695     -0.530053
O       5.87218      0.07040     11.53873        -0.070349     -0.767927     -0.056013
O       5.86116      7.82628      2.77410        -0.165493     -0.678714     -0.571282
O       5.81972      7.83222     15.93814         0.156025     -1.016136     -0.257758
O       5.83703      7.80322      7.37532        -0.218992     -0.359544     -1.053115
O       5.75937      7.77221     11.63768         0.231374      0.462944     -0.146650
O       5.83106     11.67695      2.84978         0.268769     -0.559336     -0.541870
O       5.83651     11.73989     15.89685        -0.123739     -0.140630      0.182549
O       5.76843     11.69773      7.23812         0.415775     -0.162614     -1.076959
O       5.79676     11.61646     11.55322         0.014245      0.842368      0.197756
O       9.54799      3.75595      2.87371         0.705522      0.420916     -1.156596
O       9.77023      3.89162     16.17021        -0.491415     -0.528682     -1.085893
O       9.70966     15.59335      2.78349         0.123014     -0.770473     -0.396661
O       9.65000     15.57570     16.01701         0.361594      0.497104     -0.415956
O       9.74313      3.88115      7.17846        -0.160571     -0.513888     -0.237408
O       9.71294     15.55344      7.26004         0.095070      0.657455     -0.196331
O       9.56451      3.88550     11.60419         0.958768      0.603334     -0.106532
O       9.62403      0.09511     11.66632         0.655552     -0.630406     -0.578310
O       9.79068      7.78499      2.88079        -0.247256     -0.489167     -0.963324
O       9.64110      7.69859     16.01875        -0.034084      1.001537     -0.012351
O       9.79748      7.76322      7.26767         0.049582      0.541989     -0.934283
O       9.73145      7.86867     11.59868        -0.284773     -0.856576     -0.383508
O       9.80514     11.58545      2.83441        -0.291108      0.577292      0.023737
O       9.73089     11.67700     15.92472        -0.246021     -0.163713     -0.443194
O       9.62592     11.75108      7.15844         0.569458     -0.624789     -0.276894
O       9.71956     11.70724     11.72900        -0.059827     -0.127662     -0.413002
