  # total energy = -7877.07865702 
CRSYTAL
PRIMVEC
    15.2000000000000000    0.0000000000000000    0.0000000000000000
     0.0000000000000000   15.2000000000000000    0.0000000000000000
     0.0000000000000000    0.0000000000000000    17.000000000000000
PRESSURE
8.47465 8.63694 2.67338 -0.324371 0.208286 -0.000808
PRIMCOORD
320 1
Pb       3.87894      3.62801      4.15603        -0.089964      0.414088     -0.089752
Pb       3.67951      3.66108     16.84282         0.050089      0.241593      0.477202
Pb       3.92164     15.02677      4.08804        -0.319201     -0.038605      0.011981
Pb       3.59480     15.16997     16.87854         0.219542     -0.249925      0.461049
Pb      15.19850      3.47678      4.15490         0.005823      0.866405      0.729509
Pb      15.10560      3.90200     16.98502         0.116422     -0.716061      0.570037
Pb      15.12414     14.96477      4.24570        -0.034689      0.373769     -0.318365
Pb      15.02863      0.00297      0.11732         0.502681      0.038986      0.062578
Pb       3.54020      3.97335      8.56353         0.819199     -0.128340     -0.409535
Pb       3.80462     15.18596      8.45231         0.296329     -0.168811      0.613863
Pb       0.04707      3.79673      8.48109        -0.228517     -0.191100     -0.686776
Pb       0.04458      0.06047      8.19854        -0.513381     -0.372792      1.310351
Pb       3.72728      3.80875     12.68305        -0.199750     -0.507514      1.081201
Pb       3.72071      0.08001     12.76406        -0.095682     -0.374214     -0.555805
Pb      15.01785      4.03728     12.72968         0.716819     -1.312876      0.325155
Pb      15.08479      0.09334     12.71868         0.261455     -0.287374      0.049103
Pb       3.87610      7.46616      4.14072        -0.051271     -0.500512      0.253560
Pb       3.62138      7.51339     16.78652         0.274934     -0.153746      0.609505
Pb      15.19343      7.52428      4.29999         0.032253     -0.313951     -0.276264
Pb      14.94439      7.51862      0.09585         0.941077      0.234620      0.466674
Pb       3.82788      7.57168      8.55831        -0.453897     -0.040163     -0.163622
Pb       0.12071      7.65823      8.47269        -0.157652     -0.249360     -0.543663
Pb       3.78258      7.72887     12.81225        -0.553678     -0.024114      0.189518
Pb       0.01445      7.73297     12.80150         0.243628      0.379195      0.230424
Pb       4.02727     11.20127      4.13564        -0.673738      0.600684     -0.176430
Pb       3.70513     11.39531     16.86989        -0.008629     -0.417694      0.712058
Pb       0.15760     11.22380      4.18968        -0.614851      1.005839      0.000603
Pb      15.04644     11.35919      0.01848        -0.105835     -0.095861      0.773132
Pb       3.81615     11.41466      8.50935        -0.097903     -0.191927     -0.201402
Pb       0.22144     11.43399      8.33459        -0.657954      0.129415      0.029465
Pb       3.86229     11.58123     12.69142        -0.915317     -0.632618      0.655692
Pb       0.05725     11.51450     12.84078        -0.539229     -0.383109     -0.110325
Pb       7.58445      3.81564      4.38911        -0.337402     -0.325635     -0.212934
Pb       7.54295      3.75248     16.88104         0.405071     -0.248073     -0.259911
Pb       7.59988     15.11748      4.22128         0.104533     -0.132997      0.427786
Pb       7.56058      0.00371     16.84026        -0.128196     -0.016213      0.748233
Pb       7.30707      3.72133      8.77564         0.695971      0.298284     -0.662639
Pb       7.58799      0.04782      8.65037         0.002771     -0.270812     -0.514500
Pb       7.67001      3.84970     12.73769        -0.104048     -0.346535      0.339862
Pb       7.48044     14.99460     12.76654         0.103564      0.536766     -0.000112
Pb       7.55722      7.53398      4.04706        -0.196695      0.094772      1.082536
Pb       7.76842      7.56923      0.03215        -0.315553     -0.019030     -0.448836
Pb       7.48038      7.54368      8.55133         0.709440      0.078362      0.344604
Pb       7.53932      7.64648     12.67383         0.791097     -0.062497      0.504320
Pb       7.64399     11.46080      4.32007        -0.065888     -0.197593     -0.374311
Pb       7.43484     11.36062     16.94247         0.753338     -0.316278     -0.117723
Pb       7.69970     11.34322      8.67536         0.109391     -0.048634     -0.890432
Pb       7.66832     11.52873     12.77489         0.407100     -0.424344      0.440437
Pb      11.22801      3.78660      4.43621         0.523517     -0.196219     -0.498485
Pb      11.25666      3.76025     16.94719         0.060233      0.297825      0.081804
Pb      11.30010     15.16140      4.26617        -0.157222     -0.289859      0.139675
Pb      11.31450      0.16806      0.09690        -0.128063     -0.796114      0.032869
Pb      11.37705      3.85779      8.50467        -0.024799     -0.272246      0.295501
Pb      11.53385     15.19560      8.45804        -0.574272     -0.485683     -0.053155
Pb      11.38488      3.83842     12.62072         0.019292     -0.397154      0.616157
Pb      11.41891     15.19792     12.59007         0.247307     -0.015610      0.560897
Pb      11.26621      7.44572      4.31971         0.243903      0.404348     -0.272411
Pb      11.46265      7.65545      0.02890        -0.665949     -0.349317      0.095790
Pb      11.43786      7.60249      8.60314         0.069592      0.422452     -0.245061
Pb      11.55527      7.78140     12.81799        -0.430095      0.036505     -0.385702
Pb      11.32659     11.40410      4.28053         0.395395     -0.184975     -0.250218
Pb      11.36094     11.35140      0.04643        -0.066725      0.253188     -0.000137
Pb      11.49093     11.32823      8.32352        -0.482460      0.154898      0.818518
Pb      11.46075     11.48062     12.59056         0.078540     -0.355054      1.330424
Ti       1.92171      1.70913      2.29546        -0.488178      0.636124     -0.663040
Ti       1.71030      1.81825     14.94226        -0.152865      0.289717     -0.124903
Ti       1.89771     13.20843      2.16736         0.041222     -0.690374     -0.603852
Ti       1.71616     13.24164     14.97437         0.569717      0.776091      0.688346
Ti      13.22188      1.84792      2.33412         0.276000     -0.179506      0.114935
Ti      13.23833      1.88449     14.99674         0.375100      0.376760     -0.891154
Ti      13.24050     13.26253      2.26752         0.121488     -1.308629      0.242632
Ti      13.23199     13.37136     15.06876        -1.764222     -1.512248     -0.911027
Ti       2.02521      1.80904      6.36708        -1.387050      2.379793     -0.708761
Ti       1.96836     13.39396      6.33299        -0.295471     -2.355292     -0.710033
Ti      13.23434      1.90159      6.53536         1.461931     -0.097464     -1.083883
Ti      13.24447     13.24228      6.39827        -0.150116      0.456852     -0.506762
Ti       1.83754      1.88221     10.67406         0.050205     -1.072381      0.306429
Ti       1.76680     13.31459     10.73169         1.510161      1.285107     -0.301536
Ti      13.31943      1.93385     10.71226         0.761949     -1.113943     -1.407163
Ti      13.28564     13.27829     10.65105         1.170859      0.588455     -0.118930
Ti       1.92409      5.53161      2.26368        -0.669503      0.534679     -1.132223
Ti       1.78372      5.60020     14.99613         1.017772      0.600778     -0.522968
Ti      13.28366      5.59626      2.34059         0.696633      0.728666     -0.781149
Ti      13.26487      5.68108     14.97492        -1.317259     -0.661996      1.365924
Ti       1.95015      5.65764      6.32518        -0.303646      0.378869      1.613050
Ti      13.31873      5.68191      6.48682         0.757665      0.587485     -0.920239
Ti       1.90404      5.70696     10.86328        -0.540533      0.846636     -0.791681
Ti      13.32059      5.74392     10.73041         0.095843      0.875909     -0.476296
Ti       1.89872      9.34578      2.18506        -0.752433      0.640858     -1.059790
Ti       1.78477      9.47528     15.13159         0.198476     -0.311069     -1.373444
Ti      13.25874      9.39938      2.51021        -0.372205      0.914238     -0.750216
Ti      13.23707      9.46868     15.10076         0.893485      1.217188     -1.703486
Ti       2.02683      9.48943      6.37272        -1.126115     -0.121023      0.819638
Ti      13.34846      9.47222      6.44148        -0.607173     -0.670487     -0.406248
Ti       1.90920      9.56869     10.80880         0.380890     -0.027591     -0.471397
Ti      13.42826      9.54256     10.71586        -1.957432      0.056274     -1.402793
Ti       5.75550      1.76321      2.16373        -1.009778      0.378626     -1.181397
Ti       5.62106      1.80057     15.02255         0.483723      0.060940      0.538796
Ti       5.75980     13.16202      2.16092        -0.366198     -0.070552      0.815659
Ti       5.63374     13.18296     14.97043        -0.049604      0.591349     -1.048019
Ti       5.66680      1.89264      6.54024         1.527009     -0.540443     -0.574673
Ti       5.69055     13.21890      6.55865         1.022144      0.749373     -0.277842
Ti       5.66028      1.92760     10.75397        -0.554611     -1.773613      0.095141
Ti       5.64775     13.26170     10.72773        -0.519756      2.344460     -0.234491
Ti       5.72125      5.53437      2.05517        -1.438698      0.724777     -0.036346
Ti       5.70445      5.64668     15.01822         0.154267     -0.648979     -0.423838
Ti       5.74768      5.67200      6.54518        -0.931993     -0.908419     -0.206889
Ti       5.66866      5.70817     10.97863         0.323072      0.639569     -0.859666
Ti       5.58980      9.30051      2.05466         1.195682      0.738761     -0.030182
Ti       5.64217      9.36601     14.88349         0.386338      0.796595      0.741242
Ti       5.71507      9.40995      6.52219         0.952933      0.382345      0.190217
Ti       5.69836      9.58510     10.81942        -0.032391     -1.004615     -0.664455
Ti       9.41498      1.87635      2.33446         1.094912     -0.937595     -1.559122
Ti       9.52740      1.84020     14.86500        -0.958712      0.595540      0.932061
Ti       9.48698     13.20986      2.17729        -0.343042      0.502371     -0.655725
Ti       9.45983     13.30630     15.13525         0.661451     -0.722207     -0.714365
Ti       9.46574      1.90438      6.59085        -0.222154     -0.939901     -0.112855
Ti       9.37073     13.27434      6.59297         1.815638      0.375054     -0.437122
Ti       9.45947      1.81530     10.72270         0.237717      1.965603     -0.912380
Ti       9.53289     13.25479     10.70641        -0.656394      0.281055     -0.764526
Ti       9.44682      5.57142      2.21859         0.581792      1.341668     -1.449901
Ti       9.54540      5.71845     14.90720        -0.388069     -0.223944      0.408055
Ti       9.50867      5.69651      6.64597        -0.299751      0.451207      0.198590
Ti       9.60075      5.71671     10.80608        -0.698974      0.541034     -1.037558
Ti       9.40976      9.42876      2.33100         0.466976      0.374125     -0.418846
Ti       9.42101      9.46406     14.89774         0.474474      1.000594     -0.827295
Ti       9.48810      9.42950      6.50036         0.060287      0.146220      0.616332
Ti       9.56179      9.53317     10.77900         1.081277     -0.567648      1.230859
O       1.78651      1.79379      0.50258         0.156475     -0.297635      0.002421
O       1.74116      1.89624     13.16762         0.285862      0.014361      0.467970
O       1.81021     13.33202      0.36858         0.286432     -0.179995     -0.004197
O       1.73827     13.37947     13.20149         0.353426     -0.403053      0.325148
O      13.25304      1.73422      0.55195        -0.250614      0.467762     -0.419003
O      13.25766      1.87611     13.19920        -0.111105     -0.076928     -0.177663
O      13.13058     13.22613      0.47439         0.455901      0.019171      0.161290
O      13.25571     13.25314     13.23294        -0.200493      0.346237      0.763287
O       2.04366      1.84662      4.55989        -0.051380     -0.204238      0.753383
O       2.08205     13.24096      4.54183        -0.295971     -0.024840      0.907110
O      13.36498      1.90593      4.69721        -0.823936     -0.007578      0.682892
O      13.26491     13.31471      4.60777        -0.207425      0.025406      0.299822
O       1.82834      1.74890      8.84531         0.269018      0.687639      0.783406
O       1.71756     13.39362      8.95408         0.501020     -0.454396     -0.778171
O      13.49363      1.81501      8.87969        -0.115806      0.310827      0.435586
O      13.34527     13.32262      8.89159         0.022496     -0.096933     -0.376475
O       1.85670      5.61329      0.39618         0.195312     -0.198666      0.531106
O       1.89259      5.47377     13.18351        -0.626110      0.589503      0.224086
O      13.32759      5.72977      0.46052        -0.302055     -0.366887      0.623766
O      13.21547      5.66726     13.24671         0.211439      0.085237     -2.048949
O       2.07528      5.60659      4.62095        -0.494572      0.090653     -1.099934
O      13.31704      5.68985      4.65523        -0.418942     -0.260394      0.637886
O       1.92425      5.82160      9.03235         0.081323     -0.478165      0.443947
O      13.37058      5.84534      8.97841         0.135729     -0.440279     -0.291981
O       1.93876      9.30618      0.30184        -0.025976      0.331953      1.535790
O       1.81190      9.50887     13.28448        -0.399131     -0.029235      0.258074
O      13.38805      9.51779      0.69556        -0.554380     -0.607058     -1.208570
O      13.36081      9.49045     13.27248         0.010648      0.100472      0.696883
O       1.92442      9.61717      4.62837         0.651681     -0.512949     -0.599164
O      13.23145      9.39580      4.59995         0.170307      0.007082      1.603657
O       2.01845      9.47540      8.98495        -0.416700      0.481585      0.698648
O      13.36111      9.41016      8.88435         0.335455      0.587552      0.723193
O       5.73468      1.74311      0.34390        -0.097376      0.265157      0.919239
O       5.62108      1.75949     13.29850         0.204009      0.142177     -1.622248
O       5.86578     13.20011      0.45107        -0.281797     -0.108175     -1.568259
O       5.62072     13.20675     13.07861         0.461197      0.458945      1.139236
O       5.80143      1.99817      4.72474        -0.314982     -0.154399      0.543461
O       5.88367     13.07010      4.75886        -0.461391      0.268266     -0.421891
O       5.58205      1.68631      8.96351         0.358359      0.938558     -0.015938
O       5.68838     13.38002      8.95926        -0.094254     -0.354871     -0.802698
O       5.65898      5.67865      0.28611         0.130927     -0.328837      0.008723
O       5.82401      5.66636     13.21211        -0.357452     -0.405965     -0.992340
O       5.72871      5.68700      4.78674         0.279966     -0.404370     -0.289333
O       5.64296      5.77276      9.17141         0.081212     -0.315306      0.094287
O       5.40520      9.32834      0.31305         0.931891     -0.035472     -0.214372
O       5.73803      9.65118     13.12619         0.081477     -0.708719     -0.615970
O       5.79398      9.31370      4.75980        -0.458711      0.466947     -0.081024
O       5.55274      9.43266      9.00586         0.457864      0.336264      0.661651
O       9.52527      1.94531      0.48512        -0.047960     -0.087566      1.127562
O       9.57133      1.76116     13.12839        -0.153271     -0.102055     -1.146471
O       9.40996     13.13200      0.37034        -0.267440      0.301976      0.452398
O       9.48703     13.35137     13.32256        -0.157793      0.203817     -0.725887
O       9.39069      1.80936      4.74951         0.505226      0.441445      0.004849
O       9.34968     13.34653      4.77432         0.045229     -0.395365     -0.145519
O       9.38981      1.97600      8.92441         0.437071      0.348543      0.315704
O       9.49428     13.20272      8.94253        -0.092718     -0.188712      0.009742
O       9.44096      5.57104      0.38594         0.098197      0.211963      1.316807
O       9.71583      5.77742     13.13507        -0.720523     -0.201392     -0.201649
O       9.49052      5.68295      4.83398         0.111314      0.094470     -0.627013
O       9.65703      5.63625      8.97845        -0.414683     -0.464585      0.434774
O       9.39633      9.33422      0.58088         0.539306      0.127955     -1.367176
O       9.45368      9.51008     13.08027         0.171647     -0.340656      1.055827
O       9.54553      9.29927      4.74431        -0.325381      0.258135     -1.005316
O       9.64314      9.75012      9.07971        -0.375410     -0.214879     -2.137814
O       3.80895      1.74943      2.45462         1.114173     -0.043156      0.470421
O       3.61007      1.77083     15.25886         1.125407      0.090690      0.269140
O       3.83497     13.17142      2.36349         0.786824      0.343281      0.716566
O       3.79544     13.19046     15.39690        -1.124278      0.723301     -0.528569
O      15.19172      1.70303      2.68152        -0.143295      0.181894     -0.225650
O      15.06663      1.69139     15.44938         0.354385      0.768242     -0.208381
O       0.01349     13.11621      2.45208        -0.530906      0.678726      0.568367
O      15.02510     13.10817     15.37774         1.540906      0.378842     -0.169532
O       3.85761      1.84006      6.81010        -0.467509      0.023357      0.105723
O       3.81002     13.24272      6.71159         0.086955      0.476371      0.586913
O       0.04772      1.85900      6.68396         0.302724      0.337859      0.017489
O       0.06969     13.20187      6.59110        -0.269863      0.438201      0.295164
O       3.79384      1.85116     11.13964        -0.745150      0.067462     -0.048981
O       3.74274     13.41731     10.99098         0.385625     -0.145678      0.376109
O       0.04413      1.85575     11.19946        -0.818157      0.628187     -0.745669
O      15.19281     13.35518     11.10384        -1.562025     -0.409135      0.299430
O       3.81116      5.58796      2.64067         0.693472      0.397373     -0.497027
O       3.75386      5.55060     15.25758        -0.532874      0.038742     -0.024429
O       0.02404      5.64375      2.47704         0.304045     -0.669785      0.633597
O      15.10104      5.57860     15.32350         1.136894      0.399707     -0.079499
O       3.80457      5.73579      6.82904         0.052837     -0.288570      0.526309
O       0.01859      5.72196      6.69873         0.922946     -0.370173      0.552441
O       3.73284      5.70441     11.23797         0.784260      0.595099     -0.006623
O       0.03636      5.80260     11.13736        -1.176056     -0.161701      0.187218
O       3.77564      9.28930      2.58609         0.450697      0.501701      0.125189
O       3.79223      9.43757     15.22813        -0.576328     -0.373312     -0.098411
O      15.19805      9.47853      2.71896         1.488009     -0.167802     -0.331332
O      15.14238      9.45834     15.51228        -0.421868      0.395906     -0.247515
O       3.83535      9.51437      6.76324         0.812593     -0.064079      0.244551
O       0.01606      9.54973      6.62077         0.562482      0.332322      0.526758
O       3.78941      9.49265     11.26396         0.347275      0.127677     -0.400020
O      15.18441      9.64149     11.19890         1.336377     -0.361129     -0.164646
O       7.59059      1.82617      2.63207        -0.374674      0.455514     -0.084219
O       7.63272      1.88439     15.34878        -0.173947     -0.266177     -0.421713
O       7.65396     13.28565      2.62680        -0.733966     -0.566125      0.161958
O       7.46458     13.17972     15.28313         1.125622      0.466650      0.184510
O       7.65919      2.02373      6.95533        -1.035178     -0.046156      0.024037
O       7.63424     13.38179      7.00647        -1.473426     -0.680688      0.203085
O       7.51446      2.04927     10.97037         0.505599     -0.030866      0.439044
O       7.59503     13.28268     11.08055         0.294366     -0.664601      0.114876
O       7.51340      5.52190      2.59656         1.486411      0.203726     -0.114836
O       7.61399      5.65021     15.32641         0.489387     -0.134557     -0.141239
O       7.62388      5.64074      7.01256         0.238079     -0.258678      0.070509
O       7.69149      5.68835     11.14783        -0.769563     -0.173668      0.035924
O       7.51277      9.33700      2.42062        -0.071519      0.095225      0.519374
O       7.59383      9.29857     15.27052        -0.871977      0.272251      0.312552
O       7.60437      9.43495      6.82977        -0.508180      0.017780      0.801251
O       7.70415      9.55024     11.01041        -2.522692      0.189098      0.089446
O      11.37799      1.77954      2.72421        -0.481202      0.502817     -0.122836
O      11.37055      1.84366     15.41901         0.068398      0.102714     -0.092343
O      11.33091     13.16550      2.58058         0.243679      0.575913      0.352044
O      11.28898     13.21642     15.52191         0.675877      0.203079     -0.483465
O      11.43930      1.92374      7.01751        -0.340636     -0.130411     -0.498195
O      11.32154     13.21767      6.80869         1.167480      0.538766      0.000553
O      11.48530      1.94132     10.88581        -1.585416     -0.450340      0.434960
O      11.40472     13.39615     11.03804        -0.285047     -0.168193      0.034662
O      11.41316      5.66210      2.54398        -1.008537      0.050555      0.325213
O      11.36746      5.70608     15.44389         0.489573     -0.242998     -0.043615
O      11.46922      5.81546      6.94666        -0.199372     -0.363110     -0.381956
O      11.45130      5.68302     11.13752         0.475431     -0.176728     -0.264284
O      11.36148      9.39476      2.64453        -0.251587     -0.289311      0.105083
O      11.40874      9.41209     15.33327        -1.515511     -0.172091      0.370813
O      11.37682      9.45718      6.89116         0.889921     -0.209794     -0.309194
O      11.51893      9.56503     11.20660        -0.595067      0.108805     -0.211248
O       1.95904      3.67255      2.56579        -0.229680     -0.038592      0.015113
O       1.79633      3.71599     15.36770        -0.371137     -0.162313      0.047939
O       1.95437     15.05284      2.65004        -0.118785      0.242076     -0.091553
O       1.69011     15.13399     15.36281         0.590519     -0.620225     -0.160302
O      13.29989      3.72322      2.62604         0.124454      0.038985     -0.095513
O      13.39142      3.74741     15.23248        -0.842556     -0.087359      0.581391
O      13.28120     15.12126      2.61591        -0.003332     -0.189955      0.228993
O      13.20410     15.17627     15.35040        -0.178798     -0.210535      0.219127
O       2.03183      3.76291      6.77946        -0.523807      0.120644      0.302431
O       1.97679      0.04394      6.75171         0.041204     -1.916899     -0.200906
O      13.35662      3.79156      6.90383        -0.249316      0.366614      0.053888
O      13.23430     15.16063      6.68982         0.150052      0.214697      0.452557
O       1.85852      3.80946     10.94103         0.228303     -0.228627      0.011977
O       1.88097      0.01058     11.13725        -0.031505      0.564436     -0.085786
O      13.33973      3.80125     10.89674         0.411611      1.122747      0.580469
O      13.28203      0.02152     11.04483         0.137006     -0.368141      0.247680
O       1.90208      7.51025      2.60138        -0.042393     -0.004931      0.046308
O       1.70809      7.56980     15.24185         0.645182     -1.506809     -0.089064
O      13.53929      7.52471      2.66760        -1.189473     -0.463797     -0.229619
O      13.30476      7.52955     15.24828        -0.005569      0.696810      0.831302
O       1.96169      7.61931      6.84981        -0.227102      0.006844     -0.553123
O      13.43517      7.60624      6.85195        -0.374778      0.105311     -0.315322
O       1.84378      7.74128     11.20385         0.155251     -1.380823      0.051163
O      13.20142      7.68863     11.08071         0.871878     -1.212563      0.311046
O       2.00423     11.30166      2.38274        -0.086715     -0.707443      0.442525
O       1.89072     11.37611     15.30415        -0.361467      0.259395      0.234971
O      13.25563     11.36710      2.80374        -0.114119      0.011796     -0.404294
O      13.15996     11.32429     15.50922         0.373294      0.261978     -0.231430
O       2.02759     11.40666      6.90126        -0.270789      0.066352     -0.353013
O      13.18525     11.42986      6.70567         0.806078     -1.492521      0.026686
O       1.98260     11.48351     11.14238        -0.515274     -0.856214     -0.171150
O      13.30657     11.42933     11.06031        -0.017562      0.619785     -0.051416
O       5.63675      3.71943      2.43842         0.211833     -1.005191      0.192338
O       5.75267      3.67449     15.27186        -0.705629      0.393696      0.362703
O       5.74019     15.07862      2.54809         0.029820      0.564841      0.181022
O       5.70104     15.09088     15.32970        -0.217089      0.152632     -0.095521
O       5.68935      3.79392      6.99450        -0.209105     -0.311794      0.119262
O       5.78660     15.12977      6.76750        -0.381196      1.277183      0.149944
O       5.54137      3.82719     11.13611         0.746427     -0.470277     -0.161643
O       5.82075     15.14958     11.09283        -0.459843      1.269565      0.321714
O       5.76355      7.45041      2.56256        -0.762264      0.002300     -0.372219
O       5.66101      7.45800     15.10915        -0.293548      1.862598      0.317640
O       5.71532      7.47551      7.00851        -0.018309      1.812310     -0.204659
O       5.72099      7.62528     11.22378        -0.252623      0.412708     -0.064853
O       5.77139     11.25559      2.43044        -0.264003     -0.392015      0.487741
O       5.67187     11.30185     15.22377         0.071236     -0.227289      0.650325
O       5.77494     11.41054      6.91080        -0.103593     -1.592898      0.296318
O       5.51604     11.45091     11.02970         0.802905     -1.482781     -0.149250
O       9.50590      3.76105      2.54195         0.185556     -0.247537      1.018096
O       9.54876      3.76427     15.15073         0.018965      0.130912      0.237958
O       9.47074     15.14642      2.60801         0.263514      0.174867     -0.156513
O       9.44206     15.19709     15.41749         0.261745      0.003822     -0.181921
O       9.74795      3.80826      6.63044        -0.149355      0.014074      0.731141
O       9.57336      0.00244      6.94009        -0.114489      0.449514      0.000082
O       9.54221      3.70516     11.22224        -0.062516      1.276695     -0.244404
O       9.33684      0.02727     10.83409         0.484407     -1.146160      0.992669
O       9.44572      7.50747      2.57921         0.089943     -1.193765      0.146429
O       9.49854      7.58827     15.33967         0.225715     -0.380250      0.199642
O       9.49491      7.59881      7.03409        -0.066463     -0.447650     -0.012345
O       9.61863      7.64587     10.86723        -0.157244     -1.088913      0.622842
O       9.47283     11.35131      2.50990        -0.234378     -0.503545      0.813262
O       9.33500     11.36190     15.19379         0.299633     -1.019530      0.605904
O       9.49240     11.34060      6.79104        -0.537540      0.117095      0.191798
O       9.54774     11.43580     11.14349        -0.129698      0.763206      0.237094
