  # total energy = -7879.77089946 
CRSYTAL
PRIMVEC
    15.2000000000000000    0.0000000000000000    0.0000000000000000
     0.0000000000000000   15.2000000000000000    0.0000000000000000
     0.0000000000000000    0.0000000000000000    17.000000000000000
PRESSURE
7.52921 7.67985 1.88994 0.077886 0.16115 0.03923
PRIMCOORD
320 1
Pb       3.79240      3.67137      4.12515         0.246386      0.367252      0.347926
Pb       3.88035      3.78683     16.91135        -0.439753      0.003026      0.063018
Pb       3.71422      0.01444      4.21801         0.326847      0.102787     -0.076962
Pb       3.69310     15.18635     16.94446         0.191400     -0.002435      0.192856
Pb       0.03040      3.72748      4.21076        -0.352054      0.213550      0.299457
Pb      15.17776      3.70972      0.08536        -0.329773      0.439197     -0.397025
Pb      15.18168      0.01702      4.32502         0.262995      0.106025     -0.575706
Pb      15.03784     15.17317      0.06371         0.718560     -0.204258      0.000378
Pb       3.91982      3.84394      8.54714        -0.537886     -0.684358     -0.117898
Pb       3.78512     15.04670      8.69082         0.097906      0.849936     -0.881614
Pb       0.16151      3.77989      8.51829        -0.756247      0.116345     -0.209206
Pb      15.14242     15.05457      8.41951         0.583844      0.470356      0.272978
Pb       3.71765      3.82345     12.69881        -0.103609      0.287518     -0.180899
Pb       3.59082      0.08621     12.80340         0.698981      0.074672      0.043618
Pb      15.09910      3.90011     12.66624         0.182392      0.025988      0.371197
Pb      15.18115      0.16736     12.83261        -0.452651     -0.146365     -0.336721
Pb       3.79027      7.47515      4.17587         0.876793     -0.180382      0.253921
Pb       3.78702      7.52777     16.88910        -0.047564      0.908484      1.122764
Pb       0.00912      7.64364      4.20985        -0.566709     -0.814417      0.422012
Pb      15.02794      7.55758     16.94588         0.307477     -0.270766     -0.204171
Pb       3.86775      7.69059      8.45018        -0.407702     -0.536229      0.021265
Pb       0.10018      7.55291      8.39376        -0.627260     -0.000110      0.146678
Pb       3.73948      7.59523     12.69122        -0.223309     -0.166777      0.065818
Pb       0.03094      7.63060     12.63347        -0.350760     -0.045533      0.351646
Pb       3.72970     11.20155      4.22142         0.718734      0.238144     -0.531463
Pb       3.82167     11.32100      0.22096        -0.157191      0.231139     -0.756155
Pb       0.09706     11.35836      4.16863        -0.646578     -0.334757      0.460270
Pb      15.16571     11.38024      0.09993         0.119813      0.295319     -0.850780
Pb       3.85966     11.34317      8.57137        -0.233535      0.242661     -0.199843
Pb       0.04042     11.43398      8.37604        -0.031683     -0.490341      0.403885
Pb       3.64861     11.36782     12.86174         0.599245     -0.284605     -0.412373
Pb       0.00929     11.34827     12.89168        -0.476572     -0.238306     -0.587283
Pb       7.49878      3.65192      4.26477        -0.012637      0.702813     -0.010074
Pb       7.54097      3.70747     16.84566         0.150152      0.522792      0.828410
Pb       7.60045     15.07369      4.26126        -0.285292      0.165485      0.046053
Pb       7.64406     15.15289     16.93364        -0.457598     -0.158514      0.112291
Pb       7.52158      3.77278      8.65591         0.006283     -0.218886     -0.534538
Pb       7.66359     15.17135      8.45486        -0.518535      0.156385      0.714887
Pb       7.62823      3.92466     12.80701        -0.281061     -0.318252     -0.832943
Pb       7.57557     15.16142     12.77342         0.133420     -0.072897     -0.462496
Pb       7.70566      7.46901      4.19778        -0.529259      0.157523      0.266401
Pb       7.58141      7.72132     16.91781         0.554371     -0.527775      0.328183
Pb       7.54802      7.60468      8.49930        -0.272128      0.254699     -0.493567
Pb       7.51752      7.66156     12.70425        -0.199001      0.085603      0.367747
Pb       7.58210     11.27345      4.37220        -0.397459     -0.105645     -0.557537
Pb       7.66529     11.40911     16.87838        -0.115837      0.200229      0.155877
Pb       7.66236     11.41560      8.62098        -0.395315     -0.236402     -0.541497
Pb       7.55897     11.37075     12.72056        -0.013664     -0.014254      0.304596
Pb      11.25212      3.73447      4.35809        -0.173280      0.590654     -0.421888
Pb      11.28206      3.63289      0.00649         0.231283      0.516547      0.546036
Pb      11.35439     15.14048      4.25928        -0.211503     -0.023761     -0.104762
Pb      11.38007      0.00983      0.04324         0.047096     -0.258134     -0.060428
Pb      11.43225      3.88287      8.52902         0.005705     -0.769558     -0.475716
Pb      11.45131      0.02890      8.23736         0.270246      0.150715      1.248699
Pb      11.32597      3.83975     12.75212         0.158838     -0.081777     -0.144408
Pb      11.46404      0.00540     12.58588         0.035590      0.141750      0.515910
Pb      11.33426      7.61931      4.25829         0.116759     -0.669056     -0.104364
Pb      11.31567      7.54923     16.93384         0.172780      0.134801      0.110515
Pb      11.32222      7.53381      8.54455         0.723238      0.343343     -0.304804
Pb      11.42555      7.64460     12.73557         0.097724     -0.075329     -0.069461
Pb      11.26693     11.21706      4.28747         0.515293      0.346406      0.050853
Pb      11.35128     11.55539     16.93402         0.354981     -0.602949     -0.325739
Pb      11.49396     11.40710      8.42895         0.377353     -0.196704     -0.053669
Pb      11.40355     11.57759     12.55336         0.430443     -0.790123      0.494895
Ti       1.87678      1.89711      2.10559        -0.338585     -0.606778     -0.021534
Ti       1.82637      1.90967     15.01586         0.512563      0.334968     -0.494605
Ti       1.85975     13.22354      2.33800         0.852878      1.009574     -2.000565
Ti       1.90812     13.25495     15.01292        -0.519041      0.411887      1.990059
Ti      13.22240      1.81048      2.31259         0.090708      0.267497     -0.053831
Ti      13.22905      1.91337     15.01932         0.069647     -0.752169     -1.146695
Ti      13.31106     13.18170      2.35829        -0.257761      0.995625     -0.114830
Ti      13.35787     13.29243     14.96637         0.113236     -0.152984     -0.536267
Ti       1.84726      1.85661      6.59557         1.902431     -0.099191     -0.820305
Ti       1.98350     13.25911      6.43442        -0.318335      0.260221      0.055984
Ti      13.31097      1.87261      6.37122         0.079862      1.637734      0.368930
Ti      13.37802     13.24397      6.40785        -0.525989     -0.677847      0.211617
Ti       1.86886      1.91125     10.75534        -0.320171      0.423443     -0.423895
Ti       1.87989     13.25734     10.84766        -0.525105      0.036079     -1.752033
Ti      13.22383      1.96642     10.68120         0.203917     -0.190343     -0.203108
Ti      13.41038     13.31410     10.68841        -0.183106     -0.035924     -0.158626
Ti       1.82967      5.66162      2.17483         0.479993      0.274399     -0.158195
Ti       1.78269      5.74949     15.03378         0.129747     -0.929291     -0.596371
Ti      13.24275      5.61211      2.31881        -0.917990      1.073217     -0.887487
Ti      13.15986      5.66690     15.03022         1.179231     -0.068499     -0.958717
Ti       1.87131      5.61286      6.45810         0.253713      0.369684      0.499743
Ti      13.17973      5.69883      6.50594         1.370371     -0.614552     -1.403781
Ti       1.84242      5.73589     10.69426         0.331592     -0.420395      0.040739
Ti      13.19049      5.72097     10.69106         0.504545      0.016174      0.666013
Ti       1.89521      9.31875      2.12125         1.019209      0.612158     -0.466131
Ti       1.89121      9.49124     15.03623        -0.410561     -0.386663      0.005013
Ti      13.34318      9.40954      2.13695        -1.215472     -0.385757      0.997416
Ti      13.26778      9.47365     14.93960        -0.625808      0.705012     -0.041862
Ti       1.90929      9.44687      6.45226        -0.286874      0.016168      0.849402
Ti      13.32176      9.44586      6.44225         0.192788     -0.305397      0.605602
Ti       1.82291      9.52784     10.62939         0.199040     -0.318998      0.039836
Ti      13.27025      9.47171     10.64957         0.717420      0.289014     -1.689432
Ti       5.70114      1.83588      2.12716        -0.449323      0.249876      0.450480
Ti       5.70474      1.93263     14.85205        -0.894788     -0.964954      0.400919
Ti       5.64911     13.31123      2.19125         0.436700     -0.439976      0.792130
Ti       5.71239     13.30790     15.06235        -0.399669      0.446283     -0.757834
Ti       5.65026      1.86874      6.57403        -1.082156      0.216792     -0.926361
Ti       5.65811     13.34358      6.50902         0.759911     -0.102083     -0.392164
Ti       5.72946      1.89155     10.85422        -0.374003      0.736993     -0.615259
Ti       5.66240     13.28794     10.89805         0.172140     -0.462224     -0.754836
Ti       5.71343      5.68208      2.17211        -0.158185     -0.398378      0.905069
Ti       5.64220      5.73606     14.98896         0.093017      0.642849     -0.952878
Ti       5.62495      5.68379      6.45666         0.249636      0.075282     -1.044009
Ti       5.63521      5.74703     10.65233        -0.378791     -1.076932      1.382378
Ti       5.79367      9.50321      2.19020        -0.265105     -0.258588      0.506118
Ti       5.73066      9.52431     15.00622        -0.912073      0.350236     -0.796659
Ti       5.65022      9.56606      6.52252         1.096937     -0.866018     -0.444612
Ti       5.61299      9.50438     10.77648        -0.051394     -0.355894      0.043063
Ti       9.34605      1.86324      2.23782         1.359967      0.645989      0.829457
Ti       9.44057      1.84583     14.88921         0.968609      0.196416     -0.528849
Ti       9.49490     13.22890      2.34800        -0.207691      0.764089     -0.882043
Ti       9.54794     13.31330     14.86166         0.106928     -0.404710     -0.393119
Ti       9.39835      1.87994      6.56134         1.011228      1.051822     -0.029023
Ti       9.52073     13.23893      6.55331        -0.074093     -0.260074     -1.291219
Ti       9.49518      1.89937     10.75933        -0.142231      0.116627     -0.495988
Ti       9.52811     13.31220     10.66182         0.153543      1.225636      0.279727
Ti       9.44936      5.65840      2.16977         0.118781     -0.596437      1.486014
Ti       9.44224      5.65178     14.97714         0.105482      0.435604     -0.584180
Ti       9.37139      5.67361      6.56952         0.173570     -0.934702     -1.703857
Ti       9.38199      5.79036     10.70530         0.832201     -0.934956     -0.089893
Ti       9.51769      9.49328      2.08448        -0.058605     -0.620846     -0.140098
Ti       9.51399      9.52503     14.90563         0.536039     -0.712792     -0.103562
Ti       9.51411      9.40161      6.56585        -0.581213      0.645849      0.375992
Ti       9.49238      9.49439     10.74892        -0.683305      0.168387     -0.085563
O       1.87606      2.07046      0.29200         0.049642     -0.581434      0.554088
O       1.87767      1.84830     13.17029        -0.365124     -0.031676      0.500466
O       1.85447     13.29875      0.47484         0.166787     -0.433564      1.468966
O       1.72772     13.19913     13.26687         0.704899      0.224938     -1.118460
O      13.27917      1.75353      0.47632        -0.286078      0.290839      0.041301
O      13.18661      1.82285     13.20512         0.479408      0.320329      0.531047
O      13.37119     13.45084      0.57009        -0.395851     -0.752674     -0.167527
O      13.38176     13.18579     13.16115        -0.135345      0.311694      0.284746
O       1.86919      1.94025      4.75533        -0.033223     -0.242311      0.158772
O       1.97725     13.37104      4.62466        -0.322548     -0.842242      0.204938
O      13.51129      1.87815      4.55737        -0.619804      0.255372      0.542856
O      13.42945     13.13060      4.66473        -0.214822      0.049613     -0.889349
O       1.90704      1.88635      8.95702        -0.283338     -0.171953      0.581556
O       1.90230     13.29689      8.97578         0.006236      0.023275      1.247276
O      13.17079      1.99612      8.89417         0.238801     -0.135050      0.389055
O      13.50721     13.31732      8.88893        -0.564363     -0.200567     -0.040831
O       1.76681      5.76024      0.38487         0.371875     -0.333262      0.240818
O       1.87820      5.83484     13.22986        -0.062296     -0.159021     -0.156103
O      13.20367      5.69970      0.47112         0.045380     -0.013793      0.339489
O      13.25856      5.59471     13.20862        -0.526628      0.558093      0.736926
O       1.97869      5.63179      4.68470        -0.330085      0.090329     -0.072364
O      13.34522      5.71879      4.70130        -0.493254     -0.127221      0.132002
O       1.93023      5.65186      8.93458        -0.344606     -0.051153      0.021690
O      13.17210      5.60848      8.95638         0.021113      0.263820     -1.646912
O       1.87722      9.39443      0.33342        -0.101639      0.053307      0.236205
O       1.88603      9.46911     13.22162         0.135605      0.211748      0.453148
O      13.27144      9.45310      0.37794         0.051426     -0.166240      0.132428
O      13.25269      9.45833     13.14959        -0.339496      0.196141     -0.228390
O       1.78998      9.33828      4.67021         0.706573      0.477464     -0.300610
O      13.41170      9.48214      4.64722        -0.048508      0.003042     -0.120810
O       1.87830      9.49623      8.85014        -0.133374      0.169480      0.399632
O      13.27056      9.35273      8.74986         0.006404      0.680043      2.341824
O       5.72920      1.93461      0.36876         0.110425     -0.006309     -0.636155
O       5.65641      1.96846     13.07339         0.180565     -0.456511      0.394613
O       5.64842     13.33676      0.42343         0.238078     -0.518165     -0.584059
O       5.66654     13.29257     13.26977         0.223393      0.079988     -0.652243
O       5.65919      1.75810      4.74955        -0.041611      0.208081      0.424010
O       5.69669     13.46532      4.72300        -0.041169     -0.449851      0.464616
O       5.73583      1.91651      9.05675         0.068201      0.037151     -0.298944
O       5.67442     13.03482      9.08368        -0.194718      0.943728      0.902921
O       5.63729      5.58867      0.39393         0.404427      0.274675     -0.107579
O       5.58057      5.84747     13.16999         0.292413     -0.292356      0.968828
O       5.67615      5.66571      4.63930        -0.184959     -0.114398      0.851096
O       5.58634      5.56371      8.90414         0.634602      0.626800     -0.779779
O       5.85467      9.60697      0.40411         0.031464     -0.191788     -0.134497
O       5.75203      9.41080     13.18812        -0.555759      0.043151      0.689042
O       5.70683      9.57264      4.74530        -0.172379      0.237053     -0.553570
O       5.63420      9.52123      8.98985         0.231176      0.225752     -0.694595
O       9.40178      1.82290      0.48874        -0.116973     -0.278931     -1.263986
O       9.55446      1.99207     13.09963        -0.617363     -0.236648      0.780485
O       9.59210     13.28407      0.51238        -0.189502      0.055392      0.268423
O       9.55664     13.25016     13.07123         0.050075      0.280995      0.401230
O       9.47030      2.05548      4.80352        -0.322201     -0.660093     -0.653501
O       9.62075     13.22718      4.68536        -0.580884     -0.137649      0.803906
O       9.47620      1.73906      8.95850         0.083749      0.424263     -0.331292
O       9.45606     13.44415      8.89184         0.354437     -0.359192     -0.573875
O       9.53356      5.59807      0.44249        -0.205231      0.325862     -1.700484
O       9.47469      5.52498     13.14857        -0.196392      0.396880      0.621978
O       9.47783      5.65700      4.71452        -0.311847     -0.082580      0.994219
O       9.40648      5.93688      8.90227        -0.197594     -0.596924      0.097606
O       9.49138      9.46299      0.24516        -0.228997      0.332269      1.419606
O       9.49000      9.61209     13.12201         0.074575     -0.462144     -0.776442
O       9.52148      9.40911      4.81217        -0.066178      0.758427     -1.189334
O       9.35041      9.37730      8.95831         0.408944     -0.047419     -0.082088
O       3.74592      1.94538      2.46218         0.008606      0.135653      0.089329
O       3.85855      1.73595     15.24793        -0.556505      0.508311      0.058651
O       3.80181     13.12919      2.68063        -0.475719     -0.059727     -0.373195
O       3.79110     13.37013     15.48388        -0.237734     -0.287071     -0.797022
O      15.17155      1.81623      2.44196         0.633221      0.110403      0.212362
O      15.16146      2.00826     15.28655        -0.129024     -0.004990      0.116321
O       0.00465     13.36008      2.65049         0.430044     -0.666447      0.143748
O       0.01516     13.21944     15.42229        -0.238329     -0.017117      0.074823
O       3.78621      1.78622      6.98534        -0.211055      0.347051     -0.150064
O       3.84083     13.25892      6.83627        -0.679601      0.185336      0.391994
O       0.03017      1.93429      6.90258        -1.052223     -0.304733     -0.061816
O       0.01394     13.22451      6.81509         0.954416      0.171631     -0.113758
O       3.68945      1.90447     11.14987         0.420608     -0.469678      0.028378
O       3.75104     13.32316     11.25532         0.432066     -0.200226     -0.178006
O      15.08346      2.12257     11.08627         0.561285     -0.625785     -0.031520
O       0.01534     13.17694     11.08702         0.312711      0.180937      0.347760
O       3.82466      5.55921      2.60130        -0.373041      0.137511     -0.431842
O       3.77493      5.84529     15.46401         0.314536     -0.821488     -1.038725
O      15.17381      5.81693      2.51472         0.021601      0.213279      0.163472
O      15.13145      5.59913     15.31417        -0.563878      0.113474      0.320990
O       3.77400      5.69386      6.85540         0.137725     -0.291462     -0.077501
O      15.17317      5.63842      6.85446         0.548056      0.269829      0.062722
O       3.77355      5.71667     11.04247        -0.590276      0.396169      0.269895
O      15.09366      5.63186     11.03501         0.637092      0.190886      0.048100
O       3.87372      9.52449      2.42007        -0.471633     -0.064589      0.396220
O       3.84159      9.42603     15.36694        -0.502037      0.177183     -0.124410
O       0.04824      9.18548      2.41947        -1.042141      0.315648      0.049193
O      15.11371      9.41793     15.20554         1.237403      0.490315      0.546405
O       3.74959      9.52992      6.87763         0.390645     -0.101082     -0.163493
O       0.05636      9.47652      6.77682        -0.472958     -0.253437      0.160073
O       3.70746      9.40492     11.05328         0.229616      0.261996      0.234165
O      15.17712      9.57576     11.12687        -0.366876     -0.339750     -0.336329
O       7.53842      1.80320      2.71362        -0.251868     -0.780135     -0.285243
O       7.55947      1.90239     15.27768         0.489879      0.477061     -0.175759
O       7.55919     13.36902      2.59085         0.437382      0.036413      0.122658
O       7.68496     13.22274     15.26553        -0.397382     -0.281783      0.328913
O       7.56233      1.83659      6.93871         0.638977     -0.153070     -0.114638
O       7.57491     13.18266      6.81770         0.520464      0.593232      0.094601
O       7.61406      1.92820     11.15319        -0.061865     -0.084468      0.140996
O       7.67283     13.29837     11.09151        -1.363312      0.063699      0.231820
O       7.55354      5.69842      2.62437         0.427122     -0.055460     -0.299303
O       7.57384      5.63700     15.27962         0.007995     -0.209216      0.064142
O       7.49383      5.62453      6.81652         0.288044      0.351597      0.540127
O       7.48991      5.50313     11.03693         0.165210      0.921935      0.085743
O       7.67025      9.47389      2.61418         0.341881     -0.143527     -0.033015
O       7.59266      9.58679     15.21955         0.817970     -0.011523      0.525176
O       7.62876      9.59261      6.75651        -0.599662      0.047666      0.695632
O       7.46756      9.57085     11.16425         2.132860     -0.302837     -0.306476
O      11.31837      1.90012      2.52884         0.760249      0.126572      0.445393
O      11.33868      1.68787     15.29058        -0.349458      0.155875      0.501577
O      11.43389     13.21836      2.67884        -0.162957     -0.258583     -0.079420
O      11.46054     13.43532     15.31586        -0.874021     -0.485495      0.212715
O      11.44071      1.95050      6.70414        -0.222372     -0.700107      0.157936
O      11.51156     13.29181      6.82272        -0.604104     -0.257643      0.166324
O      11.36823      1.84457     11.16934         0.217372      0.533148     -0.427461
O      11.49728     13.39888     10.98585        -0.658339     -0.628885      0.025541
O      11.23451      5.50933      2.66244         1.901978      0.196145      0.035333
O      11.32754      5.70637     15.32766        -0.116969     -0.044744      0.115002
O      11.30820      5.64404      6.81631         0.225786      0.402994      0.443644
O      11.31270      5.89472     10.97045        -0.872380      0.035549      0.376370
O      11.35823      9.56742      2.63282         0.269251      0.196377     -0.570859
O      11.34433      9.42361     15.38398         0.443306      0.191355     -0.384523
O      11.43774      9.45028      6.74509        -0.787703      0.131094      0.368313
O      11.36241      9.37528     11.01656        -0.377105      0.213943     -0.100118
O       1.74238      3.80449      2.47276         0.313652     -0.536273      0.174008
O       1.99258      3.82544     15.19590         0.224567     -0.386818      0.427942
O       1.94243     15.16936      2.55124         0.103439      0.384398     -0.213175
O       1.78184     15.19463     15.35437         0.255116      0.038121     -0.268833
O      13.38062      3.82764      2.60183        -0.112216     -1.615397     -0.049611
O      13.08852      3.74614     15.34751         0.201419      0.270273      0.234163
O      13.27327     15.14075      2.73125        -0.154601      0.273214     -0.076435
O      13.40875     15.16463     15.33185         0.074636      0.367621      0.065021
O       1.92376      3.74864      6.90076         0.071727      0.568122     -0.122711
O       1.92039     15.10686      6.82001        -0.350801      0.369504      0.267287
O      13.26369      3.77178      6.73328         0.124298     -0.036702      0.232941
O      13.43583     15.17887      6.57471        -0.247138      0.081819      0.597951
O       1.85740      3.87303     11.14709         0.147278     -0.746416     -0.079319
O       1.82567     15.19022     11.16141        -0.378144      0.109286     -0.058135
O      13.00368      3.88951     11.09071         0.562016     -1.184614     -0.068509
O      13.37877      0.02653     10.95393         0.213990      0.112428      0.437622
O       2.08714      7.52975      2.65472        -0.515779     -0.358173     -0.530125
O       1.83235      7.60237     15.30647         0.047448      0.228800      0.409590
O      13.03617      7.56229      2.66038         0.793007      0.348261     -0.669148
O      13.24700      7.63358     15.26703        -0.213664     -1.876964      0.369454
O       1.99915      7.55459      7.00425        -0.632658      0.116069     -1.137071
O      13.27212      7.55226      6.82959         0.198498      0.160980     -0.028331
O       1.77323      7.62717     10.98397         0.029102     -0.322736      0.212553
O      13.27951      7.60900     11.01073         0.271653      0.235060      0.473864
O       1.87969     11.20967      2.46169        -0.506950      1.154963      0.545407
O       1.87272     11.37491     15.40656         0.324602     -0.276583     -0.084277
O      13.48003     11.29355      2.52428         0.031657     -0.026458     -0.122403
O      13.31968     11.38129     15.38437        -0.496763      0.502021      0.140934
O       1.92811     11.41036      6.83788        -0.105418     -0.513977     -0.504138
O      13.30854     11.33107      6.79965         0.059143      0.410269      0.249337
O       1.93570     11.35123     11.15070         0.135807      0.686984      0.104918
O      13.27255     11.34449     10.96673        -0.501352      0.456440     -0.021467
O       5.78863      3.66827      2.54557        -0.345304      1.183757      0.092011
O       5.65134      3.86695     15.22070        -0.198200     -0.987514      0.050877
O       5.52798     15.17229      2.40860         0.154134      0.075575      0.607790
O       5.84773     15.19682     15.29233        -0.107577      0.397987     -0.022349
O       5.71022      3.74770      6.83613        -0.298861      0.400979      0.205691
O       5.65786      0.04622      7.01783         0.359248     -2.307544      0.072886
O       5.52012      3.75216     11.01277         0.318970      1.103859      0.445792
O       5.67133      0.01269     11.05006         0.007574     -1.509779      0.492555
O       5.77596      7.57688      2.57605        -0.525904      0.026763     -0.358300
O       5.86310      7.65857     15.48861        -0.899943     -0.780128     -0.721816
O       5.65104      7.63830      6.75364         0.145244     -0.582904      0.615205
O       5.70214      7.59910     10.99411         0.285386     -0.516599      0.208474
O       5.79011     11.36155      2.59265        -0.078690      0.426820      0.208247
O       5.67493     11.44567     15.33507        -0.041584     -0.871805      0.277422
O       5.61820     11.35733      6.91640         0.223457      1.634846     -0.110654
O       5.66730     11.29052     11.23944        -0.701517      2.392890      0.152486
O       9.34533      3.75142      2.49341        -0.161304     -0.525017      0.436205
O       9.56195      3.70337     15.42417        -0.375263      0.139948     -0.602906
O       9.53330     15.19531      2.70351         0.024782     -0.625035      0.063048
O       9.29436     15.15975     15.24832         0.682226      0.405795     -0.105190
O       9.45574      3.79423      6.87518        -0.152638     -0.684228      0.614511
O       9.67091     15.12337      6.77790        -1.195344      0.893555     -0.196545
O       9.43374      3.89707     10.93924         0.729289     -1.002112      0.177408
O       9.57745      0.03162     11.07238        -0.748241     -0.626308      0.403059
O       9.60120      7.59327      2.55450        -0.486781      0.448224     -0.302985
O       9.45989      7.54191     15.17827        -0.321539      0.106968      0.271995
O       9.33900      7.54375      6.78219         0.381766      0.721585      0.514923
O       9.29251      7.61918     11.12436         0.034928      0.392152      0.187527
O       9.41699     11.37894      2.53347         0.226695     -0.499573      0.305570
O       9.61419     11.36759     15.14127         0.070086      1.546757      0.926903
O       9.56214     11.43712      6.99062         0.278295     -0.973576     -0.105027
O       9.54077     11.44559     10.82695         0.181816     -0.902781      0.478575
