  # total energy = -7881.11824128 
CRSYTAL
PRIMVEC
    15.2000000000000000    0.0000000000000000    0.0000000000000000
     0.0000000000000000   15.2000000000000000    0.0000000000000000
     0.0000000000000000    0.0000000000000000    17.000000000000000
PRESSURE
7.7207 7.24417 3.78504 -0.010218 0.027942 -0.027469
PRIMCOORD
320 1
Pb       3.77667      3.82986      4.22458         0.097727     -0.069435     -0.041410
Pb       3.68023      3.79265      0.07656         0.162173     -0.395873     -0.206504
Pb       3.76102     15.15854      4.32398         0.256965      0.077933     -0.463598
Pb       3.84092     15.19419      0.03678         0.154610     -0.141285     -0.547013
Pb      15.09010      3.87160      4.22979         0.585778     -0.248322     -0.035349
Pb      15.13393      3.68998     16.99122         0.517325      0.734757     -0.314775
Pb       0.00860      0.00621      4.15992        -0.338487     -0.033301      0.251080
Pb       0.02469      0.02430     16.90636        -0.299665     -0.234008      0.346029
Pb       3.72337      3.66610      8.52871         0.255184      0.488071     -0.165603
Pb       3.72745      0.01273      8.40418         0.786008     -0.203518      0.538219
Pb      15.06644      3.82932      8.40921         0.484976     -0.516950     -0.143050
Pb       0.09538     15.17329      8.64922        -0.604968      0.223358     -0.966323
Pb       3.76771      3.83669     12.82070         0.291403     -0.044407     -0.512933
Pb       3.81032     15.08757     12.63115        -0.088984      0.159859      0.579454
Pb       0.05463      3.54952     12.79481        -0.315380      0.972823     -0.049876
Pb      15.19230     15.12010     12.64873         0.021174     -0.213574      0.241919
Pb       3.65936      7.64457      4.23228         0.632732     -0.411502     -0.181390
Pb       3.89735      7.55023      0.09639        -0.714961      0.540831      0.030805
Pb      15.19993      7.55056      4.17019         0.121282      0.412978      0.345174
Pb       0.19364      7.66252      0.02088        -0.673363     -0.249929      0.314796
Pb       3.69879      7.55387      8.50717         0.020099     -0.127071     -0.030605
Pb      15.16941      7.58152      8.53047         0.047095      0.242748     -0.863364
Pb       3.85005      7.65424     12.74113        -0.310119     -0.002202     -0.241231
Pb      15.15762      7.59142     12.70040        -0.191789      0.242994      0.260617
Pb       3.73673     11.42744      4.23552         0.630388     -0.000185     -0.133006
Pb       3.75975     11.37367     16.98648         0.571278      0.000780     -0.210413
Pb      15.14002     11.38935      4.22836        -0.121952     -0.129507     -0.378886
Pb       0.05074     11.42338      0.00500        -0.498107     -0.290113     -0.052682
Pb       3.80634     11.31823      8.40382        -0.432688      0.644559      0.606107
Pb      15.07921     11.34100      8.50300         0.075878      0.121195     -0.391498
Pb       3.82659     11.34028     12.72886        -0.186040      0.131426     -0.505933
Pb       0.02066     11.43346     12.56828        -0.520970     -0.556240      0.871260
Pb       7.60949      3.76240      4.16028         0.033512      0.471076      0.070853
Pb       7.56925      3.77251     16.93615         0.304916      0.001159     -0.303915
Pb       7.60868      0.10944      4.24133        -0.239348     -0.502771     -0.168686
Pb       7.54300      0.02036      0.01151         0.119821     -0.213285     -0.159414
Pb       7.58327      3.90158      8.39698        -0.164903     -0.316594      0.237408
Pb       7.54515     15.15374      8.38027         0.012406      0.037813      0.282996
Pb       7.51224      3.71049     12.67835         0.145485      0.366025      0.141090
Pb       7.67817      0.10075     12.66382        -0.625535     -0.631816      0.343491
Pb       7.52194      7.67682      4.43342        -0.094769     -0.089698     -1.132164
Pb       7.47222      7.51045     16.92427         1.045462      0.185268      0.117659
Pb       7.63818      7.54389      8.53441        -0.350853      0.107047     -0.423862
Pb       7.72794      7.50792     12.81903        -0.912283      0.286384     -0.283878
Pb       7.65829     11.42386      4.14778        -0.547168     -0.269864      0.053905
Pb       7.68790     11.33108     16.98274        -0.484579      0.178306     -0.074374
Pb       7.53265     11.33141      8.33869         0.519992      0.376779      0.285815
Pb       7.55244     11.23982     12.73902        -0.183885      0.363981      0.224681
Pb      11.46862      3.61650      4.24185        -0.401160      0.756091     -0.259798
Pb      11.45311      3.84738      0.01432        -0.324350      0.045043     -0.752778
Pb      11.33573      0.02443      4.24246         0.462823     -0.253611     -0.500352
Pb      11.34977     15.14131     16.89560         0.260150      0.250252      0.577941
Pb      11.29478      3.76249      8.47972         0.251275      0.175153     -0.176426
Pb      11.31339     15.14329      8.53861         0.147122     -0.071985     -0.165320
Pb      11.44700      3.81061     12.76997        -0.294370     -0.085129     -0.369494
Pb      11.35595     15.14044     12.85859         0.156618      0.045769     -0.510694
Pb      11.39249      7.65754      4.27102        -0.113176     -0.065671     -0.523555
Pb      11.30707      7.52559      0.02528         0.200305      0.094911     -0.117255
Pb      11.34816      7.59598      8.33368         0.412719      0.208026      0.672506
Pb      11.28819      7.45302     12.64303         1.110374      0.699917      0.309895
Pb      11.43479     11.49903      4.20636         0.040801     -0.367841     -0.323935
Pb      11.30208     11.34015      0.10857         0.462815      0.096729     -0.251736
Pb      11.33472     11.38891      8.53679        -0.019252     -0.110750     -0.434232
Pb      11.47568     11.38914     12.98552         0.116805     -0.548354     -0.707787
Ti       1.89239      1.87819      2.24472         0.189837      0.227770     -0.150872
Ti       1.89367      1.88136     14.96169         0.562519     -0.045679      1.374859
Ti       1.98616     13.32658      2.18613        -0.812709     -0.620496      1.249994
Ti       1.88567     13.27889     15.01226         0.817260      0.008391     -0.883703
Ti      13.32524      1.96606      2.13953        -0.624149     -1.339590      0.684078
Ti      13.29775      1.86410     14.92738        -0.986467      0.345935      0.678312
Ti      13.38174     13.37598      2.25521        -1.061344     -0.341036      0.074579
Ti      13.28200     13.26461     15.08326         0.375928     -1.034876     -1.124465
Ti       1.87353      1.87605      6.44996        -0.828053      0.325769      0.030411
Ti       1.85116     13.30230      6.48878        -0.584946     -0.641726     -0.265126
Ti      13.24195      1.84066      6.45441         0.968635      0.101867      0.829692
Ti      13.21481     13.33917      6.49405         0.429739     -0.292818     -0.160590
Ti       1.91626      1.91283     10.68891         0.062815     -1.148072     -0.580588
Ti       1.85513     13.22387     10.65390         0.969223      0.262774      1.014625
Ti      13.26444      1.91500     10.74891        -0.538941     -0.930507     -0.305481
Ti      13.16036     13.27700     10.72963         0.072574     -0.652070      0.322918
Ti       1.91524      5.62920      2.27314        -0.049823      0.860336     -0.311045
Ti       1.94584      5.74702     15.04612        -0.741463     -1.326725     -0.687534
Ti      13.29893      5.77132      2.23875        -0.014568     -0.220157     -0.224119
Ti      13.39597      5.70663     15.01985        -0.617264      0.402375      0.213598
Ti       1.90482      5.66218      6.50830        -0.855040      0.608241     -0.831216
Ti      13.30088      5.68576      6.42714         0.014383      0.528415     -0.258967
Ti       1.87276      5.64813     10.74880         0.863526      1.015384     -0.537662
Ti      13.35755      5.61035     10.70088        -1.194868      1.381059      1.512405
Ti       1.90282      9.55488      2.27971        -0.436435     -1.038074     -1.166934
Ti       1.86103      9.50034     15.00711         0.153781     -0.115605      0.149470
Ti      13.23402      9.46494      2.21481         0.278360      0.791084     -0.447058
Ti      13.25628      9.44760     15.04724         0.346731      1.135935     -0.868983
Ti       1.87693      9.54977      6.42244        -1.461654     -0.908378      1.554921
Ti      13.27976      9.52925      6.46345         0.357462     -0.235443      1.383424
Ti       1.83075      9.41959     10.64691         1.217926      0.353802      0.372778
Ti      13.20663      9.46434     10.69862        -0.217305      0.306184      0.130685
Ti       5.70231      1.88501      2.19962        -0.337713     -0.274686      0.789026
Ti       5.64975      1.87786     14.95208         0.515461     -0.007748      1.219518
Ti       5.70534     13.30913      2.27962         0.724803     -0.787959      0.202058
Ti       5.73850     13.30414     14.98627        -0.612166      0.061156      0.145675
Ti       5.70091      1.94373      6.40744        -0.303703     -0.363643      0.838745
Ti       5.65324     13.25925      6.42678        -0.108128      1.295565      0.734555
Ti       5.71338      1.92265     10.63873        -1.020930     -0.735429      0.212675
Ti       5.64850     13.31034     10.65308         0.070136     -0.506627     -0.448976
Ti       5.73618      5.65457      2.21208        -0.166779      0.686267      2.065450
Ti       5.60935      5.64703     15.07273         1.665116     -0.703107     -1.256826
Ti       5.61450      5.70437      6.48448         0.435913      0.502881      0.764459
Ti       5.64035      5.65884     10.79301         0.214009      0.160399     -0.634107
Ti       5.68819      9.46338      2.23340         0.539030      0.466082      1.161518
Ti       5.68679      9.45692     15.02741         0.390549      0.673108     -0.079640
Ti       5.61947      9.48848      6.47619         0.844858     -0.638729     -0.139928
Ti       5.74492      9.45505     10.62653        -1.354842     -0.077058      0.443460
Ti       9.52749      1.95113      2.12963         0.076975     -0.339060      0.718004
Ti       9.51162      1.85979     14.99178        -0.436923      0.598790      0.200730
Ti       9.48489     13.33798      2.26216         0.036460     -0.638948     -0.253317
Ti       9.47460     13.25652     15.00873        -0.477304     -0.147169      0.421440
Ti       9.52266      1.85998      6.46314        -0.875729      0.340605      0.209271
Ti       9.45269     13.29390      6.41893         0.182279     -0.295069      0.086368
Ti       9.51310      1.90348     10.68087        -0.496144      0.535119     -0.028409
Ti       9.42474     13.26124     10.88161        -0.368397      0.206469     -0.488459
Ti       9.52100      5.74450      2.25883         0.081113      0.168418     -0.151891
Ti       9.50934      5.64050     14.92824        -0.108637     -0.124666      2.426102
Ti       9.48223      5.72460      6.40772        -0.032880     -0.579733      1.731397
Ti       9.41891      5.68001     10.72753         0.685755      0.160248     -0.110083
Ti       9.44365      9.46460      2.17852        -0.049518      0.298893      1.171977
Ti       9.51505      9.41459     14.95944        -0.977743     -0.145498     -0.340755
Ti       9.48203      9.48686      6.37415         0.962004      0.755727      0.788989
Ti       9.45439      9.58650     10.70693         1.052305     -1.055051      0.395915
O       1.73537      1.91152      0.44698         0.333959     -0.157250      0.332257
O       1.97822      1.93527     13.21895        -0.420383      0.025637     -0.777484
O       1.94573     13.29526      0.44636        -0.119505      0.018437     -0.741709
O       2.05237     13.24276     13.22019        -0.501672     -0.030098      0.308282
O      13.30298      1.90596      0.38021         0.007090      0.013467     -0.356805
O      13.22330      1.86262     13.15324         0.095591      0.176914     -0.519451
O      13.42272     13.43997      0.50266        -0.469041     -0.494586     -0.861008
O      13.17106     13.10700     13.25199         0.342701      0.679601      0.763006
O       1.83572      1.91557      4.64171         0.043402     -0.509795      0.584959
O       1.95910     13.27440      4.68557        -0.565306      0.278240      0.230868
O      13.20806      1.88269      4.67000         0.188795      0.084907      0.145197
O      13.20280     13.34605      4.65321         0.317558     -0.251141      0.737827
O       1.87419      1.85902      8.85174         0.088763      0.036464      1.072562
O       1.95069     13.23413      8.91846        -0.335942      0.395886     -0.938698
O      13.20720      1.87166      8.97840         0.301117      0.110964      0.210736
O      13.11115     13.25553      8.93956         0.197417      0.308442      0.543538
O       1.80913      5.65813      0.48682         0.472879     -0.033605      0.032485
O       1.94859      5.77470     13.25238         0.091432     -0.439391      0.018980
O      13.36513      5.81325      0.46058        -0.235550     -0.209307     -0.286718
O      13.21862      5.71214     13.27101         0.287142     -0.368350     -0.719271
O       1.79993      5.71481      4.67205         0.341872     -0.396644      0.701256
O      13.37884      5.61901      4.61538        -0.299057      0.150229      0.745453
O       1.98780      5.76444      8.94032        -0.415332     -0.462586      0.387507
O      13.32783      5.64448      8.99117         0.047577     -0.061892     -1.645118
O       2.01287      9.49998      0.43969        -0.688948     -0.095914      0.661304
O       1.83063      9.40264     13.23480         0.130951      0.235011      0.227261
O      13.14333      9.46377      0.43166         0.396863     -0.096736      0.112403
O      13.31199      9.61943     13.22592        -0.014119     -0.133044      0.409754
O       1.91857      9.57102      4.66225        -0.136591     -0.107174     -0.621433
O      13.32222      9.60535      4.75078        -0.239169     -0.239995     -2.014696
O       1.88363      9.46143      8.87414        -0.083863     -0.044630     -0.114681
O      13.25510      9.54433      8.87928        -0.036981     -0.259697      0.964005
O       5.74708      1.77683      0.46705        -0.077987      0.538882     -0.416220
O       5.58001      1.82145     13.21023         0.316588      0.287571     -0.959533
O       5.69081     13.28326      0.52832        -0.012352      0.091628     -0.694661
O       5.61751     13.44962     13.21448         0.307827     -0.517862      0.137047
O       5.65441      1.92459      4.63437         0.002152     -0.049096      0.009498
O       5.70649     13.29409      4.68506        -0.386039      0.222190     -0.544138
O       5.66610      2.01938      8.88132        -0.017425     -0.271310     -0.248121
O       5.64777     13.22716      8.83742         0.114842      0.067893      0.873196
O       5.67567      5.68715      0.48387         0.224632     -0.091778     -1.271177
O       5.73007      5.57575     13.29210        -0.620356      0.079431     -0.422176
O       5.56087      5.67694      4.75307         0.401657     -0.036141     -0.862614
O       5.63900      5.72305      9.01627         0.192813     -0.187459     -0.428461
O       5.75754      9.55750      0.47862        -0.193704     -0.319064     -0.989160
O       5.83167      9.34948     13.26132        -0.437125      0.249161     -0.297973
O       5.67220      9.44212      4.71345        -0.173293      0.079887      0.106525
O       5.78112      9.55663      8.82969        -0.381577     -0.110585      0.344216
O       9.59082      1.93578      0.36387        -0.211219     -0.121893      0.522253
O       9.58158      1.90302     13.21401        -0.312399     -0.076558     -0.291312
O       9.53505     13.32140      0.47931        -0.061171     -0.041288     -0.174579
O       9.43739     13.27905     13.23629         0.042048      0.251993     -0.326601
O       9.52215      1.83105      4.66353         0.083449      0.275861      0.454242
O       9.50553     13.30143      4.65118         0.043442      0.071500     -0.475328
O       9.36312      1.94698      8.89554         0.550268     -0.072500      0.115050
O       9.37160     13.27102      9.12595         0.404315      0.125035     -0.779874
O       9.52410      5.71912      0.46560         0.062741     -0.078128      0.311996
O       9.59668      5.73187     13.19572        -0.255079     -0.403286     -1.271023
O       9.37133      5.70821      4.71375         0.490861      0.102478     -1.544111
O       9.30241      5.78833      8.94632         0.511027     -0.515992     -0.062551
O       9.40178      9.46679      0.41870         0.376191     -0.050982     -1.126807
O       9.45151      9.44056     13.14439        -0.284955     -0.124195      0.516403
O       9.35832      9.42916      4.63668         0.813580      0.037298     -0.692980
O       9.52191      9.48216      8.94548        -0.310408      0.217092     -0.542113
O       3.78153      1.95818      2.42377        -0.355572     -0.708478      0.431148
O       3.82251      1.78032     15.43009        -1.530975      0.588268     -0.116944
O       3.83161     13.28657      2.63676        -1.029716      0.022341      0.096377
O       3.83960     13.33840     15.41836        -0.289005     -0.105406      0.003582
O      15.15910      1.85552      2.60294         0.027980      0.195817     -0.107951
O      15.14807      1.84175     15.25200         1.198769      0.388663     -0.028952
O       0.03480     13.29565      2.52951         0.122899      0.333334      0.544337
O      15.19466     13.21185     15.28209         0.334251      0.321645      0.318989
O       3.74960      1.98385      6.71665         0.367237     -0.600891      0.310696
O       3.72032     13.14062      6.69878         0.446059      0.602413      0.441426
O      15.14171      1.80946      6.94294         0.245791      0.011489     -0.512043
O      15.10318     13.38499      7.00373         0.241005     -0.024406     -0.553745
O       3.70952      2.02443     10.98800         0.691174     -0.137436      0.040997
O       3.75598     13.12626     11.01823         0.853064      0.095044      0.337454
O      15.16344      1.76786     11.15508         0.408477     -0.020254     -0.107180
O      15.16807     13.32851     11.11746        -0.242169      0.260377     -0.467425
O       3.80427      5.66068      2.55484        -0.197810      0.155549      0.135821
O       3.81594      5.62790     15.51533        -0.983469     -0.126263     -0.055139
O       0.01632      5.69407      2.56735        -0.813511     -0.222849      0.353543
O       0.05450      5.55514     15.32105        -0.152417      0.968986      0.162184
O       3.74397      5.76490      6.80014        -0.176512     -0.316460      0.271333
O      15.19105      5.73107      6.85666        -0.489165     -0.665186      0.204560
O       3.83050      5.58677     11.14501        -1.740959     -0.262075      0.373912
O       0.02428      5.82082     11.10332        -0.231093     -0.284710     -0.114839
O       3.78956      9.49334      2.51402        -0.373835      0.191887      0.600411
O       3.81209      9.54323     15.37340        -0.166602     -0.333628     -0.185059
O      15.17708      9.44023      2.61043         0.091919     -0.012644     -0.192286
O      15.16109      9.49091     15.44460         1.521266      0.048036      0.047728
O       3.74319      9.52390      6.78885         0.045176      0.231140     -0.057152
O      15.13806      9.41071      6.79703         0.991016      0.608214      0.392858
O       3.74068      9.49922     11.11117         1.229062      0.290741     -0.125846
O      15.18882      9.37332     10.97015        -0.515354      0.071658      0.301345
O       7.59230      2.00624      2.55876         0.598845     -0.308866     -0.048167
O       7.57813      1.92478     15.38929         0.390999      0.012444     -0.310331
O       7.56812     13.23231      2.60940         0.868481      0.278159      0.102433
O       7.62904     13.30845     15.52511        -0.220677     -0.122078     -0.674115
O       7.56499      1.78552      6.68983         0.258872      0.554377      0.124613
O       7.55170     13.41677      6.70301         0.272898     -0.508622      0.452428
O       7.56943      1.83377     11.03603        -0.220861      0.066314      0.269388
O       7.49346     13.43575     11.12505         0.299988      0.019903      0.209597
O       7.64269      5.69538      2.62509        -1.116746     -0.154866     -0.089273
O       7.56130      5.65485     15.26140         0.602060     -0.210508      0.507126
O       7.57438      5.74979      6.85138        -0.156360      0.126294     -0.168309
O       7.54882      5.65478     11.11922         0.463587      0.142246      0.383157
O       7.58486      9.42347      2.62518        -0.660149      0.135365      0.066051
O       7.59237      9.41414     15.32828        -0.084640      0.186245      0.337844
O       7.68594      9.50610      6.67254        -2.199573     -0.153526      0.803557
O       7.55280      9.40754     10.96896         0.421606     -0.435977      0.449721
O      11.43657      1.80319      2.64916        -1.393315      0.714686     -0.563811
O      11.37898      1.95511     15.34413         0.580290     -0.652656     -0.029039
O      11.38412     13.17312      2.54151         0.075157      0.560264      0.123305
O      11.38767     13.25410     15.44682        -0.242303      0.203294     -0.222675
O      11.36440      1.89566      6.91921        -0.029095      0.122657     -0.244291
O      11.32861     13.25621      6.87415         0.392409      0.566737      0.047423
O      11.35449      1.99258     11.01249         0.689490      0.164622      0.210629
O      11.32754     13.07834     11.21148         0.084537      0.793130     -0.254041
O      11.44645      5.77776      2.63776        -1.129301     -0.179024      0.004660
O      11.46785      5.81884     15.44023        -0.702418     -0.820382     -0.336482
O      11.39167      5.71732      6.85308         0.007959     -0.617559     -0.266166
O      11.36453      5.54701     10.99397         0.349031      0.146338      0.324336
O      11.35638      9.46524      2.54905         0.113704      0.179790      0.485443
O      11.34060      9.48026     15.26506         0.341347     -0.260555      0.482683
O      11.42817      9.47735      6.77406        -1.249256      0.029893      0.184557
O      11.35021      9.72086     11.03211         0.304090     -0.593663      0.065804
O       1.90480      3.76628      2.62743        -0.401295     -0.249850     -0.083323
O       1.87171      3.79707     15.43166         0.468183     -1.165148     -0.371844
O       1.91786     15.16160      2.70510         0.036789      0.596754     -0.468029
O       1.80233     15.15261     15.38709         0.493320      0.749750     -0.341060
O      13.13346      3.81507      2.52416         0.778970     -0.148225      0.007613
O      13.34168      3.74631     15.27699        -0.393995      0.589892      0.323931
O      13.18093      0.04350      2.56294         0.730027     -0.533608      0.219454
O      13.34005     15.18274     15.30437        -0.514073     -0.152659      0.024191
O       1.86283      3.73886      6.83770        -0.321375      0.764952     -0.026834
O       1.92897     15.15244      6.94515        -0.238030      0.581577     -0.690513
O      13.32414      3.76329      6.79007        -0.316141      0.342034      0.185559
O      13.19608      0.02950      6.87656        -0.247133     -0.762944     -0.019379
O       1.77931      3.77535     11.01296        -0.295680      0.067834      0.481304
O       2.02501     15.15259     11.08198        -0.931910      0.371514     -0.385704
O      13.42569      3.77565     11.06354         0.030361     -0.297705      0.416702
O      13.17064     15.13083     11.21002        -0.028408      0.399352     -0.317468
O       1.89367      7.58319      2.63647        -0.002406      0.019086     -0.157670
O       2.02682      7.53324     15.47784        -0.511331      1.412927     -0.124637
O      13.23563      7.61532      2.68006         0.429122     -0.137652      0.131305
O      13.38859      7.66947     15.22160         0.076973     -1.911657      0.549216
O       1.76673      7.59077      6.88739         0.874318      0.280700     -0.383556
O      13.27469      7.55241      6.81072        -0.086408     -0.125043     -0.026375
O       2.06217      7.55951     11.08883        -0.571838     -0.107311     -0.123916
O      13.18650      7.57868     11.16110         0.055196      0.134823     -0.511117
O       1.78075     11.38095      2.52669         0.674791      1.107167      0.320755
O       1.92606     11.36810     15.34365        -0.053895      0.142357      0.201458
O      13.31431     11.32803      2.61665         0.026712      1.129121     -0.025803
O      13.35828     11.40435     15.49718        -0.767426     -0.036787      0.159933
O       1.72307     11.42862      6.85259         0.179342     -0.871749     -0.150704
O      13.25152     11.42901      6.87317         0.281740      0.297246     -0.148460
O       1.86284     11.37611     10.96078        -0.418955     -0.789128      0.447017
O      13.34551     11.38463     11.11993         0.386235     -0.110419     -0.473085
O       5.57176      3.79059      2.61297         0.921763      0.168160     -0.115113
O       5.67797      3.76785     15.43567        -0.291922     -0.516216      0.069892
O       5.75016     15.17647      2.62815        -0.334764      1.016931      0.145542
O       5.71213      0.04433     15.48378         0.334295     -1.058284     -0.329622
O       5.64195      3.85569      6.91291         0.246466     -0.896942     -0.470975
O       5.63153      0.01891      6.93694        -0.622689      0.136421     -0.843064
O       5.61923      3.72158     11.12895         0.717230      0.284776      0.345571
O       5.48606     15.19513     11.00192         0.401536      0.240716     -0.440387
O       5.61117      7.59294      2.70759         0.258645     -0.597218     -0.534965
O       5.62535      7.51702     15.42726         0.036358      0.965209      0.040017
O       5.58205      7.62641      6.92178         0.663547      0.140876     -0.416190
O       5.61268      7.50212     11.15915         0.338112      1.500774     -0.308515
O       5.68110     11.38223      2.71637        -0.066335     -0.426938     -0.269630
O       5.74754     11.40608     15.25420        -0.007408     -0.114713      0.109954
O       5.67109     11.44221      6.81465         0.334352     -1.499023     -0.105434
O       5.82334     11.32221     11.07890        -0.550824      0.336355      0.032204
O       9.49211      3.82217      2.56468         0.577795     -0.715412      0.117488
O       9.53503      3.77673     15.36859        -0.010770      0.632101     -0.107171
O       9.38289      0.00103      2.64655         0.518505      0.710846     -0.532527
O       9.43649     15.17074     15.32175         0.618536      0.196542      0.007115
O       9.49545      3.77796      6.79306        -0.239027      0.144840      0.055138
O       9.49463     15.15933      6.90849         0.225809      0.620246     -0.114465
O       9.39169      3.80671     11.13567         0.068684     -0.434459     -0.160217
O       9.54734      0.07083     11.13735         0.222174     -0.975528      0.211174
O       9.49131      7.64485      2.59872         0.195012     -1.442340      0.254560
O       9.35644      7.49444     15.35387         0.690053      0.798297     -0.173958
O       9.56013      7.60316      6.83024        -0.494270     -0.038431     -0.274610
O       9.56880      7.61605     11.09367        -0.568590     -0.448367     -0.165819
O       9.42871     11.34637      2.46423         0.100321      0.771814      0.478956
O       9.52985     11.33396     15.26689        -0.415713      0.340844      0.455478
O       9.51943     11.44761      6.76640        -0.366442     -0.832610      0.191281
O       9.31070     11.39954     11.14316        -0.363038     -0.094026      0.029125
