  # total energy = -7865.39953983 
CRSYTAL
PRIMVEC
    15.010000000000000    0.0000000000000000    0.0000000000000000
     0.0000000000000000   15.010000000000000    0.0000000000000000
     0.0000000000000000    0.0000000000000000    16.400000000000000
PRESSURE
16.6756 16.7451 7.53497 -0.028708 0.091279 -0.231115
PRIMCOORD
320 1
Pb       3.83836      3.67648      4.24655        -0.856577      0.454102     -0.765817
Pb       3.65020      3.75990     16.36847        -0.009781     -0.317333      0.509248
Pb       3.71632     14.99242      4.16361         0.351535     -0.034892      0.117476
Pb       3.84948     14.94309      0.04450        -0.675771      0.025104      0.237025
Pb      14.91562      3.80736      4.15568         0.353762     -0.274928      0.109569
Pb      14.89282      3.61199      0.03077         0.698310      0.348461      0.301405
Pb      14.91085      0.03546      4.29680        -0.031967     -0.033440     -0.422644
Pb       0.01034     14.91925      0.15468         0.245496      0.199336     -0.307495
Pb       3.47913      3.76275      8.27537         0.337360     -0.262457     -0.305589
Pb       3.66851      0.10865      8.18300        -0.049138     -0.523588     -0.428745
Pb      14.81187      3.81014      8.35599         0.805883     -0.172044     -0.916410
Pb      14.82178     14.98137      8.18734         0.766010     -0.214918      0.241727
Pb       3.66464      3.69633     12.37003         0.231641     -0.315586     -0.134506
Pb       3.63775     14.94321     12.38265         0.201391      0.326384     -0.265389
Pb      14.92072      3.79414     12.41832        -0.088253     -0.872855     -0.221603
Pb      14.99264     14.96798     12.33212        -0.615430      0.195014      0.287934
Pb       3.86792      7.47460      4.19094        -0.001155      0.166915     -0.665015
Pb       3.78016      7.52759      0.07945        -0.211534     -0.394708      0.348767
Pb       0.11512      7.52033      4.19020        -0.260550     -0.053509     -0.296085
Pb      14.97393      7.47294      0.04612         0.149593     -0.477403     -0.120709
Pb       3.74822      7.51439      8.21859        -0.282551      0.231179     -0.240149
Pb       0.03681      7.54255      8.37221        -0.206069     -0.053702     -0.236748
Pb       3.61782      7.48232     12.28992         0.880864     -0.222759      1.064082
Pb      14.89326      7.43825     12.30958        -0.532459      0.272781      0.347735
Pb       3.85291     11.08178      4.34701        -0.507962      0.524339     -0.783740
Pb       3.77698     11.14475      0.03668        -0.341264      0.397734     -0.080101
Pb       0.17157     11.12319      4.14673        -0.391229      0.490925      0.171579
Pb       0.05634     11.32485      0.13397         0.029155     -0.144626     -0.383105
Pb       3.77677     11.27936      8.23506        -0.167906      0.187288     -0.611512
Pb       0.09573     11.27356      8.19746        -0.247018     -0.014578      0.191133
Pb       3.74590     11.25438     12.25128         0.164100     -0.049533      1.030914
Pb       0.02520     11.28309     12.31785        -0.055565      0.119957      0.089379
Pb       7.43361      3.84091      4.02227         0.190674     -0.547443      0.078050
Pb       7.47470      3.69592     16.39848        -0.419966      0.004035      0.657779
Pb       7.51250     14.88704      4.14517         0.154382      0.195243     -0.367004
Pb       7.40799     14.91722      0.01781         0.662770      0.193833      0.341757
Pb       7.36945      3.70259      8.22631         0.500695     -0.032928     -0.076113
Pb       7.44778      0.23315      8.20425        -0.039329     -1.256617     -0.160474
Pb       7.28739      3.80576     12.38989         0.554548      0.004732     -0.294547
Pb       7.43772     14.91835     12.29977        -0.036340      0.601997     -0.057392
Pb       7.58114      7.47795      4.10528         0.228886      0.528439     -0.066970
Pb       7.52724      7.45288     16.30443        -0.420829      0.313090      0.798870
Pb       7.53728      7.39355      8.34797         0.088916      0.521676     -1.190476
Pb       7.44579      7.62442     12.32950         0.091448     -0.498407     -0.140174
Pb       7.67411     11.11896      4.21909        -0.038652      0.103540     -0.134355
Pb       7.48053     11.25670     16.38525         0.126113     -0.210529     -0.445778
Pb       7.64518     11.31864      8.13710        -0.619511      0.034513     -0.094999
Pb       7.47587     11.34075     12.13801         0.030158     -0.847679      1.065913
Pb      11.07169      3.84426      4.15075         1.754229     -0.932558      0.539278
Pb      11.27514      3.75352      0.04592        -0.020525     -0.437742     -0.221373
Pb      11.29162     14.93431      4.12071        -0.668575      0.015705     -0.483148
Pb      11.26534     14.95888      0.07743        -0.349023     -0.175984      0.476079
Pb      11.20175      3.71318      8.32948        -0.371744     -0.026935     -0.823667
Pb      11.17392      0.05410      8.24733         0.021154     -0.513948     -0.069094
Pb      11.13609      3.71634     12.34861         0.375576     -0.012362      0.149745
Pb      11.20792      0.02598     12.44975         0.353623      0.117457     -0.739819
Pb      11.44151      7.48435      4.20343        -0.667501      0.435266     -0.545256
Pb      11.24295      7.44476      0.08151         0.595979     -0.000073     -0.395219
Pb      11.24738      7.45378      8.28403         0.265078      0.228421     -0.440578
Pb      11.19766      7.43361     12.30439         0.167366      0.036103      0.185855
Pb      11.38550     11.10391      4.12919        -0.503433      0.267817     -0.585398
Pb      11.32034     11.13055     16.39515        -0.145933      0.568282      0.556895
Pb      11.33477     11.34318      8.31452        -0.296026      0.097937     -0.440957
Pb      11.18572     11.25480     12.29819         0.088788     -0.164525     -0.145356
Ti       1.83785      1.77385      2.18192         0.247768      1.025958     -0.640078
Ti       1.77865      1.80946     14.36162         0.688428      0.253464      0.321818
Ti       1.89909     13.13924      2.21246         0.551243     -1.176629     -0.614930
Ti       1.89857     13.08928     14.45356        -0.171463      0.360167     -0.056646
Ti      13.10694      1.78303      2.13438         0.065213      1.181010      0.462031
Ti      13.10389      1.82925     14.36431         0.032902      0.429568     -1.579363
Ti      13.16617     13.07091      2.19104        -1.152600     -0.682981     -0.546438
Ti      13.12319     13.13527     14.39957         1.011517     -0.401514     -0.475675
Ti       1.74897      1.91917      6.07642         1.338307     -0.696816      1.056049
Ti       1.75081     13.13306      6.07982         1.759306      0.404048      1.168667
Ti      13.05780      1.88083      6.21461        -0.513514     -0.256541      0.091484
Ti      13.06398     13.04065      6.18015        -0.140477      1.332716      0.449440
Ti       1.80305      1.80554     10.29438         0.002852      0.876646     -0.337167
Ti       1.88957     13.14067     10.22574        -0.712518      0.085672     -0.216973
Ti      13.06632      1.92770     10.23128         0.110804     -2.203953      2.893676
Ti      13.13817     13.13820     10.36263        -0.435886      1.480156     -0.905595
Ti       1.92782      5.53327      2.14727        -0.090349      0.189557     -0.101674
Ti       1.81514      5.61290     14.32253        -0.246242     -0.290528      1.023855
Ti      13.19950      5.53388      2.12633        -0.634655      0.543379     -0.996791
Ti      13.02046      5.55253     14.39675         0.812594      1.260663      0.321746
Ti       1.84423      5.68719      6.15975        -0.210024     -1.722436      0.044424
Ti      13.13107      5.62792      6.17627         0.264873     -1.481695      0.053995
Ti       1.84780      5.60607     10.32013         0.242457     -0.170995     -0.926763
Ti      13.09735      5.57189     10.31206        -0.461954      1.266395     -0.367365
Ti       1.90063      9.32318      2.17961         1.798529     -0.066559     -0.983597
Ti       1.79046      9.31877     14.36967         0.536425      0.531070      0.365200
Ti      13.28832      9.30547      2.02213        -1.308715      0.480253     -0.260595
Ti      13.08163      9.39947     14.32142         0.834143     -1.379598     -0.142145
Ti       1.92039      9.34786      6.30235        -0.263965      1.074757     -0.353471
Ti      13.19885      9.36224      6.25193        -0.032689     -0.132925      0.321447
Ti       1.86865      9.35114     10.42575        -0.178107      0.696048     -1.687786
Ti      13.10051      9.42442     10.27038         0.066066     -1.199068     -0.397071
Ti       5.61995      1.83987      2.09601        -0.018525     -0.093988      0.076154
Ti       5.61072      1.81337     14.39490        -0.880431      0.810199     -0.776766
Ti       5.64895     13.10242      2.16497        -0.559426      0.518940     -0.240562
Ti       5.65046     13.08520     14.29070        -1.083432     -0.720471      0.263008
Ti       5.54798      1.92441      6.17325        -0.195930     -1.332001     -0.164814
Ti       5.55464     13.12638      6.13403        -0.061242      0.287853      0.083812
Ti       5.56726      1.89347     10.27438        -0.604389     -0.276306      0.727488
Ti       5.61029     13.13225     10.22892         0.336591      0.915197     -0.559465
Ti       5.67252      5.63744      2.15859        -1.067200      0.345037     -1.629130
Ti       5.57399      5.57505     14.38611        -1.208072      0.358258     -0.040864
Ti       5.62861      5.61246      6.27848         0.020255      1.168735     -0.385631
Ti       5.53311      5.66665     10.20165         0.999016     -0.510674      0.800418
Ti       5.74420      9.44816      2.06462        -0.636801     -1.894043      0.394299
Ti       5.56271      9.32098     14.35608         0.420893      0.344175     -0.070293
Ti       5.69430      9.37439      6.19523         0.503101      1.133344     -0.414499
Ti       5.59773      9.38027     10.21131         0.278805      0.140941      0.605830
Ti       9.36787      1.86801      2.06439         0.274876     -1.505624     -0.124927
Ti       9.34086      1.82846     14.40695        -0.266657     -0.548191      0.087731
Ti       9.35784     13.01397      2.09788         1.847989      0.994928      0.605503
Ti       9.40312     13.07257     14.34933        -0.563774      0.652178      0.172775
Ti       9.32957      1.87565      6.05861         0.314866     -0.330378     -0.253820
Ti       9.30931     13.14739      6.15293         0.863779     -0.500009     -0.160627
Ti       9.26384      1.84847     10.34588         1.081049      0.560925     -0.127894
Ti       9.39062     13.20512     10.26797         0.192582     -0.517003     -0.477000
Ti       9.48754      5.57882      2.06373        -1.271272      1.440815     -0.144901
Ti       9.27768      5.59535     14.42246         0.716567      0.221825     -0.421231
Ti       9.37952      5.54411      6.13032        -0.167031      1.726621      1.052076
Ti       9.34786      5.57515     10.21415        -0.289993     -0.447176      1.277420
Ti       9.49187      9.30646      2.01631        -0.115832     -0.034782      0.689151
Ti       9.37972      9.33928     14.30450        -0.706548      0.153165      0.739316
Ti       9.48002      9.38134      6.17482        -1.176188     -1.212884     -0.260919
Ti       9.38069      9.34268     10.15085        -0.042630      1.524373      0.183775
O       1.69121      1.81488      0.36154         0.294261     -0.071369     -0.805263
O       1.79193      1.83313     12.53340        -0.206982      0.461455     -0.460540
O       1.88141     13.02168      0.29663        -0.035009      0.449333      0.151811
O       1.86896     13.12956     12.60044        -0.131669     -0.018928     -1.012554
O      13.15604      1.84020      0.29462        -0.070322     -0.202787     -0.786774
O      13.19341      1.88657     12.42731        -0.082510      0.397040      1.555289
O      13.26200     13.19763      0.34429        -0.695474     -0.366115     -1.096173
O      13.20437     13.04841     12.51632        -0.366844      0.178245      0.467923
O       1.98180      1.78407      4.27559        -0.250822      0.146567      0.372188
O       1.97519     13.17370      4.30298        -0.540311     -0.228014     -0.909145
O      13.10714      1.83809      4.41983        -0.243700     -0.114030     -0.852491
O      13.04129     13.13947      4.36155         0.223961     -0.262142     -0.210276
O       1.85602      1.79728      8.45098         0.400462      0.376017     -0.232237
O       1.72082     13.05970      8.43294         0.531606      0.479255      0.003616
O      13.05075      1.78747      8.47133        -0.020042      0.496822     -1.362159
O      13.11965     13.10475      8.48999        -0.077573      0.007276     -0.050307
O       2.05636      5.67421      0.33094        -0.475742     -0.253216     -0.774265
O       1.81436      5.59028     12.48136         0.132724     -0.084263     -0.271310
O      13.10035      5.63133      0.15905        -0.433009     -0.113689      0.644302
O      12.98279      5.58718     12.53105         0.870439     -0.536627     -0.928695
O       1.62800      5.60709      4.31612         0.799674      0.341512      0.138468
O      13.20724      5.47980      4.24451        -0.291507      0.871837      0.806932
O       1.78735      5.59762      8.41894         0.399295      0.193447      0.473005
O      13.04811      5.60886      8.42667         0.195321     -0.033895      0.236630
O       1.89311      9.44790      0.26492         0.033967     -0.368214     -0.279125
O       1.78302      9.30080     12.48848         0.086938      0.240869      0.111888
O      13.18883      9.37074      0.17807         0.085835     -0.328430     -0.191884
O      13.14168      9.39562     12.47775        -0.065364     -0.000432     -0.364305
O       1.86721      9.35381      4.40560         0.028456     -0.122212     -0.298362
O      13.24701      9.34705      4.40423        -0.301842      0.222076     -0.523457
O       1.95581      9.45531      8.46588        -0.359620     -0.550267      0.538655
O      13.09933      9.26959      8.36302        -0.223923      0.129806      0.996904
O       5.74425      1.84603      0.27646        -0.468872     -0.356327     -1.040056
O       5.62928      1.95425     12.52629        -0.102104     -0.122841     -0.056934
O       5.61637     13.20122      0.23759         0.245266     -0.363908     -0.096757
O       5.49030     13.13646     12.43983         0.342695      0.011507      0.169430
O       5.48377      1.88901      4.32180         0.673812      0.158713      0.016402
O       5.57562     13.12182      4.22016         0.007494     -0.308232      0.815951
O       5.47512      1.82859      8.45307         0.324917      0.220736     -0.860246
O       5.70423     13.15899      8.44366        -0.162031     -0.055604     -0.651524
O       5.67824      5.52349      0.25213        -0.555246      0.427411      0.203996
O       5.47491      5.56853     12.53879         0.445218     -0.027388     -0.496497
O       5.65110      5.72811      4.41629         0.055746     -0.662610     -0.537526
O       5.52139      5.79526      8.37543         0.511368     -0.264326     -0.169630
O       5.71513      9.35580      0.19644        -0.296258      0.145011      0.074124
O       5.58525      9.36153     12.54315         0.251585     -0.204061     -0.771578
O       5.63825      9.48384      4.25273         0.029144     -0.372559      0.905774
O       5.51067      9.42044      8.42787         0.329087     -0.435445     -0.183513
O       9.40544      1.85216      0.20604         0.020858      0.346286     -0.370980
O       9.29045      1.64899     12.54729        -0.184391      0.547253     -0.049076
O       9.42264     12.96167      0.31975        -0.185322      0.269294     -1.744550
O       9.41812     13.12040     12.48213        -0.164063      0.249365      0.170478
O       9.43270      1.95099      4.20857        -0.371672     -0.244886      1.328836
O       9.36539     13.11316      4.30726         0.412154     -0.042842      0.295524
O       9.29655      1.95465      8.49404         0.028054     -0.031900     -0.184853
O       9.27252     13.18074      8.44695         0.111220     -0.244284     -0.781567
O       9.28700      5.58168      0.20303         0.874589      0.057199      0.183158
O       9.28349      5.64718     12.63229         0.344391     -0.064220     -1.215187
O       9.37429      5.55812      4.31659        -0.208046      0.108871     -0.801714
O       9.39718      5.49390      8.42070        -0.267009      0.379014     -0.305313
O       9.35924      9.35705      0.19178         0.286075      0.177030     -0.395256
O       9.44431      9.38802     12.50992        -0.412840     -0.101397     -0.656462
O       9.45787      9.31608      4.29658         0.089483      0.191360      0.366183
O       9.44418      9.32787      8.31248        -0.362522      0.084090      0.853438
O       3.76437      1.47029      2.18732        -0.035122     -0.016277      0.220183
O       3.67724      2.10658     14.53027         0.595753      0.118733      0.394782
O       3.78084     13.51353      2.22468        -0.339395     -0.160272     -0.003151
O       3.74180     12.76535     14.52117         0.571582      0.492027      0.554389
O       0.02980      2.13638      2.54726        -1.447255     -0.661936     -0.776339
O      14.92502      1.60671     14.54963         0.258985     -0.342283      0.566930
O      14.97185     12.75798      2.35434         1.369148      0.118452      0.278831
O      15.00958     13.38024     14.71499        -1.115942     -0.120383     -0.348127
O       3.71804      1.62549      6.32720        -0.476279      0.351228      0.376187
O       3.67815     13.14212      6.36454         0.665828      0.538970      0.372073
O      14.97534      2.05253      6.42820        -0.482566     -0.036264      0.021818
O      14.97167     12.97944      6.32506        -1.022489     -0.059361      0.262430
O       3.70577      1.65172     10.58177        -0.126181     -0.110288     -0.063575
O       3.71170     13.56593     10.30768        -0.139828     -0.678558      0.591707
O       0.00917      2.30058     10.39577        -1.176423     -0.204409      0.469104
O      14.94055     12.85636     10.36820         1.379540     -0.088982      0.997270
O       3.75939      5.90731      2.38197         0.224601     -0.286460      0.376935
O       3.68066      5.20932     14.56368         0.236754      0.213201     -0.130654
O      14.97598      5.31243      2.10737         1.264526     -0.184808      0.487709
O      14.98467      5.94319     14.61116         0.741439     -0.969883     -0.307849
O       3.73138      5.88333      6.35478         0.138238     -0.430619      0.083737
O      15.00225      5.34361      6.47798        -0.702194      0.616609     -0.178669
O       3.75665      5.96647     10.44857        -1.298532      0.283231     -0.014838
O      14.98374      5.45841     10.46289        -0.474252     -0.793431      0.341598
O       3.76011      9.00779      2.28115         0.591515      0.636898      0.032280
O       3.74640      9.66437     14.46635        -0.955614     -0.052535      0.647467
O       0.10296      9.72920      2.30563        -1.338583     -0.203799      0.028586
O      15.00330      9.03284     14.52884         0.154692      0.293026      0.130971
O       3.74161      9.30393      6.42480         0.658622     -0.007939     -0.110253
O       0.04546      9.38131      6.48542        -0.911283      0.071311      0.193416
O       3.70435      8.98498     10.57417         0.664800      1.017801     -0.590080
O      14.96790      9.59017     10.40821         0.084701      0.307944      0.175963
O       7.58400      2.22406      2.27225        -1.448782     -0.085207      0.318841
O       7.40802      1.52408     14.54678         1.474042     -0.061294      0.293540
O       7.57304     12.99264      2.33046        -1.697339     -1.032188      0.127754
O       7.47445     13.38804     14.49401         0.464016      0.082601      0.237995
O       7.43601      1.95611      6.42425         0.095786      0.605769      0.048839
O       7.44387     12.91322      6.18904         0.258368      0.024655      0.502859
O       7.43733      2.30768     10.45113        -0.108610     -0.362145      0.127973
O       7.50248     12.83887     10.47334        -0.545530      0.547299      0.155645
O       7.52677      5.40776      2.22362         0.545865     -0.310822      0.889819
O       7.41411      5.92590     14.47883         0.820582      0.059970      0.357081
O       7.49586      5.43253      6.39868        -0.622519      0.107610      0.478792
O       7.44885      5.43203     10.48504         0.538992     -0.190756     -0.286536
O       7.58566      9.42761      2.34262        -0.532594      0.826116     -0.220586
O       7.49662      9.04950     14.54341         0.494836     -0.023067     -0.098141
O       7.53527      9.55779      6.33940        -0.212018      0.138983      0.086017
O       7.47491      9.75643     10.47215         0.469506     -0.863349     -0.428270
O      11.24347      1.60486      2.22934         1.016089      0.284271      0.339914
O      11.22489      2.11321     14.43607        -0.387675      0.206644      0.637211
O      11.31610     13.22681      2.31304        -1.098679      0.524095      0.328278
O      11.23369     12.82955     14.59439         0.807712      0.027328      0.204530
O      11.15371      1.65877      6.43387         0.083732      0.191413     -0.105753
O      11.25846     13.34493      6.55404        -0.821564     -0.805388     -0.502492
O      11.19420      1.49527     10.62296        -0.267864      1.038032     -0.696163
O      11.21273     13.60037     10.38922         0.038979     -1.011998      0.579519
O      11.28147      5.96482      2.32748         0.520304     -0.612485     -0.282424
O      11.21756      5.34406     14.51381        -1.037665     -0.422964      0.730829
O      11.23170      5.71540      6.36455         0.083765     -0.016842      0.056678
O      11.23866      5.81672     10.53400        -0.919028      0.504234     -0.213486
O      11.38146      8.99433      2.21509        -0.197020      0.363065      0.306843
O      11.24948      9.63761     14.53683        -0.177089     -0.088296      0.199759
O      11.26493      9.24991      6.36926         1.376577     -0.309995      0.161497
O      11.21341      9.09154     10.47710         0.499433      0.297080     -0.117471
O       2.14102      3.68718      2.34493         0.251625      0.197327      0.219381
O       1.52728      3.67262     14.64289         0.077117      1.184754     -0.099778
O       1.43418     14.93947      2.41267         0.369538     -0.049693     -0.270091
O       2.06941     15.00014     14.55340         0.305611     -0.427652      0.613645
O      12.90970      3.72510      2.27578        -0.552512     -0.425907     -0.001774
O      13.32320      3.69639     14.61322         0.286852      0.127541      0.109056
O      13.26321     14.98929      2.37973         0.869155     -0.507700      0.336436
O      12.78346      0.01109     14.47484         0.179267     -1.266092      0.648476
O       2.06877      3.74829      6.24524         0.246920     -0.131737      0.486004
O       1.60529     14.98693      6.36717         0.393628      0.517184      0.152867
O      12.88484      3.68226      6.46053         0.187697      0.951489      0.338584
O      13.26194     14.97679      6.51216        -0.078764      0.079417     -0.547673
O       2.12929      3.78366     10.37200         0.095541     -0.069628      0.606282
O       1.49593      0.02402     10.58641         0.384582     -1.157902     -0.404128
O      12.71200      3.73695     10.42452         0.407071      0.308942      0.135610
O      13.32907      0.04941     10.53264         0.843536     -0.593140     -0.027235
O       1.57534      7.47374      2.34561        -0.116174      0.153305      0.061761
O       2.25798      7.43131     14.52439        -0.573403      0.878697      0.318841
O      13.54854      7.49563      2.24211        -0.130843     -0.589899      0.520953
O      12.97298      7.42416     14.43711        -0.970302      1.307741      0.558451
O       1.79142      7.48124      6.42316        -0.601668      0.443071      0.336098
O      13.18808      7.40934      6.28374         0.328381      1.139611      0.482781
O       1.51424      7.50576     10.49314         0.407280     -0.124568     -0.133392
O      13.29595      7.46753     10.43860         0.106320      0.501254      0.278273
O       2.18578     11.24522      2.45048         0.028317      0.172142      0.037370
O       1.57118     11.28454     14.56493        -0.238783     -2.020850     -0.005894
O      12.83765     11.14700      2.26427         0.419930      0.374459      0.297576
O      13.33196     11.21809     14.51280         0.444146      0.868794      0.557328
O       1.92172     11.26841      6.41229        -0.069432     -0.710771     -0.008341
O      13.05376     11.23014      6.50802        -0.263953     -0.514524     -0.201986
O       2.12424     11.27522     10.52549        -0.205618     -0.071972      0.063386
O      12.80917     11.26406     10.45701        -0.369600     -0.374727      0.059995
O       5.33611      3.69036      2.29053         0.323753      0.809824      0.676565
O       5.94723      3.74291     14.57195        -0.344717     -0.705067      0.170809
O       6.02436     14.97442      2.29654        -0.381133      0.789619     -0.054558
O       5.31671     14.98227     14.53783        -0.007444     -0.481042      0.019943
O       5.36323      3.79562      6.49125         0.255466     -0.730703     -0.142080
O       5.79647     14.98909      6.36052        -0.505264      0.015940      0.002148
O       5.27395      3.80905     10.30133         0.132308      0.187698      0.454887
O       5.88962      0.04395     10.41898         0.257211     -0.236017      0.461715
O       5.85729      7.49239      2.30991         0.001548     -0.223571      0.070904
O       5.29209      7.44337     14.57723         0.129255      0.197274      0.209473
O       5.78495      7.63819      6.39125        -0.026137     -2.922508      0.413884
O       5.99398      7.56944     10.46081        -0.566751     -0.567162     -0.098643
O       5.34457     11.22781      2.22190         0.157318      0.718685      0.079693
O       5.90931     11.21614     14.50674         0.116087      0.545751      0.570568
O       5.52954     11.24391      6.55229        -0.387995      0.739181     -0.426509
O       5.32891     11.27523     10.46209        -0.359680     -0.260577      0.165130
O       9.74314      3.77119      2.37104        -0.557584      0.082393     -1.174094
O       9.02426      3.69412     14.61409         0.354504      0.183889     -0.459238
O       9.22543     15.00445      2.28252        -0.182317     -0.186709      0.078629
O       9.67364     14.96036     14.73238        -0.550684     -0.117622     -0.345200
O       9.41450      3.70671      6.36771         0.311274     -0.349807      0.130118
O       9.16078     14.95407      6.30530        -0.134960      1.574009      0.333442
O       9.71043      3.74239     10.52539        -0.732801      0.153661     -0.086282
O       8.95007      0.02532     10.33118        -0.249342     -0.040261      0.780900
O       9.30111      7.50224      2.35928        -0.734296     -1.424562     -0.201112
O       9.74147      7.47849     14.61649        -0.855154      0.138652     -0.105394
O       9.12554      7.46859      6.34881         0.499188     -0.446868      0.316910
O       9.16492      7.52867     10.37889        -0.446216     -0.991108      0.289489
O       9.66536     11.15511      2.35726        -0.094596      0.108436      0.098566
O       9.05842     11.27372     14.55297         0.178389     -0.987295      0.161775
O       9.43859     11.23562      6.34076         0.619033      0.765637      0.414379
O       9.67468     11.26594     10.37219         0.001191      0.035087      0.371628
