  # total energy = -7866.39388691 
CRSYTAL
PRIMVEC
    15.010000000000000    0.0000000000000000    0.0000000000000000
     0.0000000000000000   15.010000000000000    0.0000000000000000
     0.0000000000000000    0.0000000000000000    16.400000000000000
PRESSURE
19.4629 19.5592 9.13119 0.357337 -0.185249 -0.05233
PRIMCOORD
320 1
Pb       3.84190      3.70857      4.16267        -0.419894      0.425782     -0.022380
Pb       3.77518      3.75111      0.02655        -0.447346      0.076311      0.025614
Pb       3.72211      0.04608      4.08579        -0.159519     -0.140493      0.542259
Pb       3.77301      0.00008     16.36136        -0.313082     -0.007836      0.278999
Pb      14.95228      3.68904      4.06695         0.625542      0.237382      0.681821
Pb      15.00173      3.69597     16.34706         0.163958      0.584939      0.885155
Pb      14.96375      0.01333      4.12802         0.419683     -0.159878      0.196905
Pb      14.94593     14.98269     16.39908         0.287784      0.404313      0.132765
Pb       3.76140      3.69388      8.22036         0.073103      0.201989      0.343621
Pb       3.77894     14.96653      8.21279        -0.018945     -0.070316      0.387205
Pb      15.00671      3.73792      8.21426        -0.048757      0.089707      0.500086
Pb      14.96434     14.94206      8.15557         0.024050      0.826236      0.816085
Pb       3.77649      3.71877     12.24404        -0.101282      0.137241      0.652341
Pb       3.74404     15.00806     12.34084        -0.124528     -0.037082      0.273740
Pb      14.99756      3.70648     12.27787         0.246674      0.278982      0.736319
Pb      15.00786     15.00674     12.26998        -0.404453      0.004430      0.545413
Pb       3.66588      7.53042      4.06260         0.090261     -0.571451      0.654823
Pb       3.75575      7.45508      0.06372        -0.472990      0.153417      0.145267
Pb      14.95965      7.48558      4.07488         0.613399      0.196592      0.589870
Pb      14.98027      7.49446      0.01139         0.261153      0.141850      0.324457
Pb       3.71965      7.53727      8.11633        -0.007950     -0.562252      0.711418
Pb      14.99466      7.51404      8.17634         0.105813     -0.227213      0.593888
Pb       3.74043      7.52182     12.27434         0.176062     -0.075999      0.477471
Pb       0.00535      7.41854     12.28208        -0.143262      0.824686      0.404331
Pb       3.67701     11.21679      4.10586         0.048051      0.231468      0.687603
Pb       3.73812     11.14276     16.33477         0.203093      0.489786      0.851379
Pb      14.97819     11.21753      4.06707         0.382825      0.331499      0.923238
Pb      14.96757     11.31051      0.01688         0.270243     -1.034376     -0.115137
Pb       3.71396     11.16775      8.18953        -0.059493      0.521355      0.625308
Pb      14.98485     11.20123      8.14766         0.425295      0.016469      1.210509
Pb       3.75008     11.25894     12.30068        -0.223599      0.048649      0.402163
Pb      15.00837     11.25729     12.29111        -0.574441     -0.327080      0.247532
Pb       7.49688      3.72238      4.09048        -0.324467      0.017687      0.544288
Pb       7.48561      3.78644     16.35540         0.646758     -0.245834      0.699469
Pb       7.48101     14.93212      4.12530         0.393827      0.358446      0.153978
Pb       7.40967     14.99167     16.36269         0.765102     -0.158489      0.815403
Pb       7.49483      3.69811      8.19261         0.066111      0.133974      0.606208
Pb       7.48853     15.00767      8.20906         0.492285     -0.499509      0.428932
Pb       7.46663      3.72084     12.26805         0.114012      0.187919      0.253376
Pb       7.52778     14.92960     12.32040        -0.423886      0.543352      0.224828
Pb       7.39905      7.50341      4.01988         0.512394     -0.154211      1.316108
Pb       7.46701      7.45748     16.38946         0.675704      0.336479      0.448370
Pb       7.48429      7.49252      8.24113        -0.312033     -0.238928      0.552202
Pb       7.52443      7.47324     12.35412        -0.223281     -0.649913      0.415851
Pb       7.48485     11.28094      4.05519         0.046215     -0.321519      1.010787
Pb       7.50585     11.24575     16.39519        -0.179164      0.555012      1.209427
Pb       7.45745     11.21932      8.18287         0.530638      0.576578      0.748991
Pb       7.51606     11.20724     12.28732        -0.560248      0.460225      0.811760
Pb      11.21087      3.74131      4.08354        -0.335899     -0.188911      0.584988
Pb      11.28143      3.77573     16.35716        -0.558340     -0.189741      1.122323
Pb      11.32614     14.97112      4.12702        -1.055482      0.273553      0.327788
Pb      11.18807     14.93432      0.00629        -0.534957      0.612281      0.771186
Pb      11.33635      3.73152      8.14565        -0.634018      0.410171      0.459029
Pb      11.28816     14.94011      8.19174        -0.631426      0.526619      0.411994
Pb      11.28829      3.71006     12.21855        -0.618518      0.658936      1.489253
Pb      11.26439      0.04884     12.26722         0.269489     -0.617484      0.634456
Pb      11.24247      7.46807      4.10131        -0.375888      0.425453      0.463168
Pb      11.19440      7.46523      0.02175        -0.225493      0.033091      0.390206
Pb      11.17708      7.46222      8.16931         0.468908      0.146125      0.634032
Pb      11.25628      7.41900     12.26536         0.241311      0.106320      1.093030
Pb      11.27146     11.24963      4.08904        -0.659828      0.476941      0.821595
Pb      11.22857     11.20145     16.38755        -0.152804      0.327183      0.923257
Pb      11.18394     11.22474      8.21172        -0.092601      0.034257      0.456845
Pb      11.21205     11.26767     12.25187         0.676832      0.001685      0.846314
Ti       1.89065      1.87608      2.22050         0.127821      0.442410     -1.394171
Ti       1.91573      1.88452     14.56078        -0.289059      0.028184     -1.136652
Ti       1.84112     13.09422      2.10587        -0.416628      0.679449     -0.064811
Ti       1.81648     13.14080     14.45807         0.293913     -0.067765     -0.704429
Ti      13.10348      1.89016      2.19032        -0.755231     -0.207198     -1.190223
Ti      13.12001      1.88307     14.46567        -0.113827     -0.788967     -0.912955
Ti      13.14125     13.12953      2.15921        -0.921438      0.086100     -0.866037
Ti      13.08364     13.14112     14.55328        -0.780158     -0.419798     -2.220317
Ti       1.88804      1.87207      6.32462        -0.979119      0.090559     -1.343011
Ti       1.86603     13.12889      6.27068         0.642465     -0.945867     -0.893600
Ti      13.07371      1.89498      6.26382         0.481878      0.307725     -0.233503
Ti      13.13898     13.09978      6.30150        -0.525108      1.045776     -1.437348
Ti       1.83672      1.84881     10.37001        -0.182844      1.164316     -0.145330
Ti       1.83531     13.11553     10.30907        -0.052692      0.045062      0.556946
Ti      13.04859      1.96646     10.36802         0.651596     -1.998457     -0.600308
Ti      13.09989     13.12054     10.31789        -0.383623     -0.237346      0.541729
Ti       1.85691      5.60984      2.16150         0.345802     -0.086278     -1.241916
Ti       1.83803      5.64770     14.39732         0.914735     -0.012263      0.934069
Ti      13.13387      5.61670      2.28267         0.134391      0.416933     -2.170565
Ti      13.12537      5.66294     14.52334        -0.213187     -0.759906     -1.213054
Ti       1.88537      5.57564      6.24653        -0.151187      0.870274     -0.651164
Ti      13.14239      5.68065      6.24151        -0.352548     -0.844618      0.325962
Ti       1.92288      5.61991     10.34402        -0.674716     -0.408618      0.097315
Ti      13.14681      5.63210     10.35127        -0.200832     -0.143256     -0.686833
Ti       1.79743      9.37424      2.16119         0.632427     -0.295214     -1.489313
Ti       1.96056      9.39149     14.43879        -1.668947     -0.307016     -0.670502
Ti      13.07140      9.40271      2.24118        -0.216523     -0.341325     -0.929140
Ti      13.10299      9.38805     14.47449         0.601190     -0.226361     -1.468609
Ti       1.93222      9.36095      6.27605        -0.699714     -0.276634     -1.054418
Ti      13.14071      9.42430      6.32611        -0.765790     -1.513615     -0.761806
Ti       1.90285      9.34846     10.32888        -1.278903      0.134294     -0.013134
Ti      13.09549      9.32229     10.35645         1.016367      0.708383      0.697784
Ti       5.62154      1.85557      2.04140         0.339026     -0.115615      1.120276
Ti       5.66141      1.92370     14.36231        -1.128325     -0.644888     -0.523777
Ti       5.52768     13.10579      2.20903         1.324317     -0.406188     -1.546664
Ti       5.59768     13.16292     14.52356         0.277692     -0.555193     -1.397662
Ti       5.67311      1.82126      6.25692        -0.972815      0.623373     -0.222374
Ti       5.61825     13.05670      6.29355         0.226396      0.080648     -0.569072
Ti       5.60690      1.79634     10.40551         0.420421      0.338218     -0.137920
Ti       5.57021     13.05571     10.41094         0.506714      0.972241     -0.617669
Ti       5.64082      5.60822      2.14350        -0.639669      0.133046     -0.089934
Ti       5.65236      5.68002     14.55463        -0.398663     -0.733329     -1.505027
Ti       5.59608      5.62776      6.29111        -0.501657     -0.296427     -1.089001
Ti       5.62845      5.64806     10.26436        -1.093808     -0.972342     -0.003679
Ti       5.55814      9.35186      2.24030        -0.002481      0.472913     -1.399685
Ti       5.68184      9.42321     14.41746        -0.681013      0.081057      0.675912
Ti       5.65020      9.33355      6.27380         0.120475      0.395276     -1.313229
Ti       5.66310      9.33552     10.30133        -1.024302     -0.477767     -0.056570
Ti       9.33786      1.90073      2.22755         0.221491     -0.880152     -0.948256
Ti       9.39848      1.89036     14.40341        -1.069711      0.255252     -0.326888
Ti       9.32001     13.15317      2.24460         0.703890      0.394995     -1.046787
Ti       9.33486     13.16041     14.44705         0.101757     -0.356048      1.210009
Ti       9.33312      1.91920      6.28080         1.034981     -1.206483     -1.598154
Ti       9.39697     13.11123      6.21835        -0.257823      1.432307     -0.721861
Ti       9.37115      1.86437     10.34413        -0.783099      0.021918     -0.559638
Ti       9.33333     13.11871     10.36451        -0.038680      0.435284     -1.014733
Ti       9.36663      5.65329      2.23799         0.141620     -0.696819     -1.178100
Ti       9.40019      5.59621     14.42253        -0.551926      0.994659      0.118330
Ti       9.27001      5.69821      6.24508         1.055735     -1.786358     -0.955157
Ti       9.36119      5.60793     10.28973         0.041164     -0.926229      0.292747
Ti       9.28791      9.38993      2.20357         0.591093      0.585552     -0.126719
Ti       9.34812      9.44554     14.47878         1.042568     -1.304693     -0.360813
Ti       9.29223      9.33451      6.30886         0.860803      1.446397     -2.287039
Ti       9.37246      9.31394     10.45614         0.620673      0.748980     -0.730563
O       1.99579      1.84165      0.34421        -0.361537      0.228925      0.967889
O       1.91334      1.91858     12.72236        -0.355147     -0.259700      0.360157
O       1.73089     13.07025      0.28883         0.177563      0.434899      0.934693
O       1.75567     13.14185     12.59676         0.366782     -0.132966      0.917965
O      13.02478      1.75279      0.33472         0.452737      0.414956      0.883894
O      13.01876      1.74343     12.62029         0.413005      0.788301      0.885808
O      13.41204     13.06109      0.26937        -1.364265      0.789171      1.130734
O      12.91338     12.91283     12.68780         0.782350      1.174370      0.385356
O       1.80537      1.93174      4.42756         0.245502     -0.340960      1.426369
O       1.78856     13.13333      4.46035         0.168291     -0.046800      0.428859
O      13.10862      1.99025      4.43678         0.100108     -0.400865      0.320044
O      13.05521     13.07103      4.42624         0.342057      0.398499      1.639149
O       1.85634      1.91270      8.57780        -0.042120     -0.308778     -0.895746
O       1.91756     13.17132      8.52559        -0.292584     -0.177929      0.198238
O      13.02471      1.86524      8.55713         0.085013      0.201726      0.199150
O      13.15984     13.07324      8.51441        -0.324471      0.264659     -0.101498
O       1.78339      5.77085      0.31517         0.143789     -0.561142      1.252259
O       1.87721      5.63182     12.60016        -0.089526     -0.193128      0.906573
O      13.11471      5.63804      0.43038         0.116948     -0.027500      0.060568
O      13.09184      5.54701     12.68337         0.235501      0.541651      0.918318
O       2.06126      5.53793      4.44373        -0.843292      0.302007      0.008891
O      13.16727      5.62364      4.39581        -0.311361      0.147339      1.400687
O       1.84808      5.58181      8.54472         0.178694      0.407307      0.298338
O      13.14726      5.50154      8.53585        -0.124444      0.902780      0.850004
O       1.97401      9.36033      0.29541        -0.428955     -0.059941      1.430477
O       1.84445      9.42304     12.56780         0.322437      0.009083      1.182858
O      13.03181      9.31167      0.43598         0.113250      0.367888      0.459793
O      13.12507      9.31430     12.61773        -0.077656      0.124424      1.512584
O       1.75393      9.33708      4.46336         0.332988      0.319222     -0.040125
O      13.08411      9.33010      4.49070         0.440392      0.267122      1.041407
O       2.00557      9.39088      8.48313        -0.626868     -0.525105      0.510949
O      13.01374      9.25473      8.58694         0.196375      0.715618     -1.167543
O       5.57312      1.80889      0.26618        -0.019683      0.083457      0.431947
O       5.50591      1.81396     12.50573         0.433779      0.353509      1.767790
O       5.68690     13.10055      0.33263        -0.830034      0.349146      1.631195
O       5.52510     13.11799     12.66418         0.363844     -0.115741      0.416643
O       5.61356      1.98919      4.45848         0.184404     -0.582809      0.778324
O       5.68907     13.01282      4.48913        -0.805744      0.441668      0.246105
O       5.58892      1.83849      8.57520         0.055166     -0.168871     -0.137652
O       5.65106     13.21072      8.57431        -0.127728     -0.343187      0.560271
O       5.82293      5.73409      0.32236        -0.986156     -0.359258      0.400475
O       5.74979      5.61866     12.73783        -0.457127      0.306847      0.277788
O       5.59517      5.62308      4.43941        -0.210559     -0.295434      0.414079
O       5.41937      5.74360      8.46534         0.857293     -0.626015      0.935650
O       5.49522      9.38968      0.38175         0.436612     -0.047826      1.140350
O       5.49921      9.38575     12.64690         0.609739     -0.011172     -0.093968
O       5.62627      9.27856      4.45039        -0.007897      0.413387      0.912491
O       5.64399      9.31944      8.48522        -0.225789     -0.044861      1.367270
O       9.37078      2.07111      0.41321        -0.126197     -0.946140      0.208570
O       9.35484      1.92806     12.55995        -0.030540     -0.409167      2.131582
O       9.29367     13.20823      0.45139         0.095838     -0.094091     -0.208873
O       9.32019     13.10186     12.68385         0.152066      0.147586     -0.648431
O       9.34014      1.82645      4.39271        -0.102193      0.544222      2.215098
O       9.56002     13.25991      4.36115        -0.622300     -0.740811      1.574756
O       9.35539      1.87950      8.51963         0.027525     -0.059485      0.211066
O       9.32754     13.13641      8.52437        -0.085561     -0.172059      1.056797
O       9.35928      5.59591      0.41388        -0.099937      0.169034      0.520107
O       9.32889      5.64703     12.63599        -0.162785     -0.335315     -0.505215
O       9.31134      5.72666      4.38707         0.156082     -0.368779      1.450384
O       9.25796      5.70192      8.50105         0.528775     -0.330549      0.432948
O       9.41023      9.45981      0.40557        -0.152264     -0.377898      0.296454
O       9.42618      9.33481     12.67810        -0.628070      0.257022     -0.232390
O       9.23007      9.34910      4.46310         0.408073     -0.099004      1.594680
O       9.26001      9.34925      8.63025         0.589831      0.189428      0.213606
O       3.76788      1.98402      2.56079         0.098932     -0.642485     -0.502036
O       3.77550      1.84622     14.74944         0.031985     -0.110355      0.036163
O       3.68631     13.03035      2.51519        -0.190882     -0.023518     -0.186158
O       3.73242     13.13218     14.71735        -0.789482      0.271879      0.153924
O      14.99458      1.92781      2.45342        -0.523358     -0.405304     -0.267178
O      15.00506      1.91296     14.78637        -0.337433     -0.158996     -0.187774
O      14.97813     13.17807      2.50090         1.181493      0.176069     -0.038786
O      14.93847     13.16513     14.61970         1.215340     -0.333476      0.130374
O       3.72454      1.95627      6.52297         0.146299      0.003958      0.016966
O       3.75150     13.01886      6.61173        -0.431147      0.036639     -0.348711
O      14.92175      1.85095      6.60503         1.558062     -0.111224     -0.148274
O       0.01166     13.16692      6.68704        -0.609955     -0.449246     -0.778043
O       3.69335      1.83816     10.67189         0.606933      0.235689     -0.372827
O       3.68991     13.14674     10.72489         0.034008     -0.131545     -0.541817
O      14.90915      1.94342     10.79977         0.608908     -0.468662     -0.844909
O      14.92906     13.12856     10.63050         0.827722      0.190159     -0.014722
O       3.72705      5.69046      2.28668         0.943213     -0.178639      0.222821
O       3.75196      5.63615     14.94361        -0.151746      0.173405     -0.971086
O       0.00374      5.53357      2.45679        -0.297823      0.543104      0.356632
O      14.98684      5.61999     14.87151         0.013765      0.045084     -0.858571
O       3.71394      5.52799      6.60539         0.278853      0.168454     -0.272932
O      14.99779      5.75620      6.57622        -0.177836     -0.273282     -0.466977
O       3.75084      5.69860     10.75124         0.304461     -0.594310     -0.500976
O      14.98481      5.59428     10.74221         0.365794     -0.020957     -0.545650
O       3.67536      9.44160      2.60315         0.003386     -0.401774     -0.633717
O       3.79424      9.36524     14.76168        -0.179254      0.166404     -0.419614
O      14.97103      9.38264      2.47962        -0.612122     -0.157441     -0.091631
O      14.99927      9.37057     14.73125        -0.377197     -0.026609      0.037574
O       3.82647      9.38165      6.49852        -1.508447      0.205497      0.035598
O      15.00698      9.29312      6.62165        -0.710095      0.184932     -0.145584
O       3.73035      9.37124     10.61272         0.784972     -0.204213     -0.036024
O      14.98019      9.28676     10.56974         0.471289      0.044589     -0.037396
O       7.48569      1.70982      2.53892        -1.637663      0.514336     -0.610603
O       7.44251      1.90254     14.71195         1.356295      0.049344     -0.159219
O       7.43757     13.14190      2.43971        -0.840418      0.282778      0.512413
O       7.49434     13.03224     14.87134         0.068284      0.490528     -0.806689
O       7.49458      1.82545      6.64620        -0.619267     -0.114409     -0.436708
O       7.53950     13.22955      6.49315        -1.049083     -0.171441      0.168265
O       7.51124      1.82624     10.80266        -0.890696      0.000178     -0.913456
O       7.45041     13.16552     10.81385        -0.096021     -0.422296     -0.693782
O       7.46796      5.59077      2.42492         0.508969      0.463307      0.315805
O       7.55199      5.62831     14.79888        -1.043141     -0.324792     -0.024926
O       7.44139      5.62652      6.58995         0.527445      0.230259     -0.030685
O       7.41481      5.73154     10.53127         2.255457     -0.504998      0.280860
O       7.44555      9.37335      2.58213         0.004870     -0.077590     -1.000348
O       7.51461      9.49892     14.83622        -0.748247     -0.239933     -0.547218
O       7.47752      9.35366      6.73285         0.314692      0.209729     -0.715630
O       7.47723      9.31250     10.75019         0.131747     -0.052430     -0.232300
O      11.19958      1.91164      2.47142         1.355342     -0.122764      0.109674
O      11.17448      1.76153     14.68281         1.114509      0.217294      0.238552
O      11.25977     13.01628      2.27711         0.538291      0.373598      0.239619
O      11.18322     13.22825     14.87746         0.483665     -0.429428     -0.189477
O      11.22406      2.00478      6.53108         0.279946     -0.334925     -0.102854
O      11.23370     13.14775      6.69101         1.248429     -0.469688     -0.592465
O      11.18720      1.88034     10.82397         0.729523      0.020564     -1.254436
O      11.20291     13.00468     10.61182        -0.617380      0.459554     -0.292582
O      11.26452      5.59210      2.40422        -1.083947      0.237525      0.641704
O      11.21606      5.63724     14.81123         0.536605     -0.022682     -0.147045
O      11.20775      5.60811      6.54786         0.145160      0.061909     -0.306743
O      11.25648      5.54576     10.72983        -0.983277      0.204958     -0.898686
O      11.20123      9.52694      2.64686         0.222743     -0.906123     -1.030097
O      11.19695      9.39096     14.83029         0.537072     -0.329659     -0.220766
O      11.18875      9.44757      6.56095         0.389371     -0.271627      0.099230
O      11.26775      9.42871     10.71136        -1.999497     -0.424697     -0.399138
O       1.84882      3.74445      2.44011         0.224756      0.229895     -0.213646
O       1.89705      3.79149     14.86279        -0.085563     -0.170590     -0.336726
O       1.93926      0.02298      2.46092        -0.265231     -1.045524     -0.066926
O       1.85733      0.00396     14.84570        -0.134095     -0.536607     -0.430566
O      13.01215      3.78425      2.53727         0.664347     -1.636622     -0.500283
O      13.06578      3.71806     14.75073         0.072287      0.425440      0.087253
O      13.12477     14.96886      2.57622        -0.022654      1.204202     -0.686574
O      13.15989     15.00432     14.60918        -0.133409      0.200348      0.740886
O       1.74978      3.77150      6.61218         0.135490     -1.305851     -0.261143
O       1.90611     14.94178      6.52652        -0.031261      1.895245      0.157840
O      13.20221      3.78371      6.72751        -0.284509      0.117260     -1.451792
O      13.16394      0.01075      6.52709        -0.589304     -0.521264     -0.097896
O       1.85600      3.73609     10.70703         0.137862      0.620504     -0.176377
O       1.84094      0.07070     10.65169        -0.473369     -2.273276      0.033909
O      13.05031      3.76340     10.68200         0.273853     -0.000236     -0.030565
O      13.02356      0.02656     10.55993         0.049475     -1.000421      0.243757
O       1.81401      7.52297      2.41672        -0.062606     -0.277362      0.423918
O       1.85407      7.53352     14.70639         0.110776     -0.516829     -0.293789
O      13.11068      7.51166      2.59644        -0.201244      0.415633     -0.587324
O      12.98212      7.46303     14.87882         0.741615      0.985520     -0.614569
O       1.90069      7.51392      6.41476         0.261467     -0.841740      0.716011
O      13.04630      7.49825      6.77480         0.114893      0.177851     -1.314693
O       1.86652      7.46758     10.75481        -0.079616      0.449315     -0.706848
O      13.05130      7.44401     10.69051         0.037822      0.138096     -0.176628
O       1.74347     11.23557      2.49490         0.317133      0.651906     -0.283110
O       1.86118     11.26289     14.87254        -0.085767      0.021165     -1.088415
O      13.20062     11.32469      2.55768        -0.151560     -1.668495     -0.535104
O      13.05940     11.25650     14.74973         0.058588     -0.890928      0.318862
O       1.78345     11.17568      6.59439         0.239029      1.538582     -0.126678
O      13.17716     11.27864      6.60285        -0.247399     -0.929458     -0.121695
O       1.78824     11.22571     10.58337         0.197819      0.775583     -0.137403
O      13.03712     11.19965     10.65253         0.751782      0.677640     -0.420026
O       5.64454      3.72646      2.31808         0.082075      0.113756      0.182181
O       5.58577      3.73041     14.74649        -0.017013      0.661087      0.029309
O       5.45252     14.97711      2.51120         0.303420      0.081885     -0.348136
O       5.67498      0.00466     14.72615        -0.269803      0.312808     -0.071992
O       5.68571      3.76123      6.65517        -0.352846     -0.832020     -0.406261
O       5.45664     14.96527      6.51320         0.506113      0.524113     -0.125528
O       5.64862      3.72928     10.71100        -0.284809      0.555786     -0.776156
O       5.63169     14.96467     10.71298        -0.342369     -0.282714     -0.341359
O       5.64077      7.49533      2.54900        -0.619565     -0.177831     -0.861063
O       5.66323      7.53990     14.76893         0.206711      0.542115     -0.205589
O       5.60500      7.49834      6.56878        -0.011266     -0.271465     -0.192348
O       5.64942      7.46277     10.64146        -0.593947      1.280146      0.176732
O       5.60779     11.17682      2.67243        -0.219329      1.282764     -0.998107
O       5.58005     11.33064     14.82262        -0.008054     -2.044992     -0.454098
O       5.58743     11.19497      6.78612         0.702456      0.809426     -1.205598
O       5.56717     11.19435     10.68663         0.399484      0.205939     -0.365142
O       9.24512      3.74227      2.63546         0.640634      0.667383     -0.667004
O       9.36629      3.78685     14.90583         0.060097     -1.297468     -1.218274
O       9.38335      0.00520      2.61800         0.239708     -0.021831     -0.918453
O       9.28306     15.00193     14.89943        -0.077941      0.906134     -0.813692
O       9.30225      3.76113      6.61180        -0.242859      0.729972     -0.461572
O       9.45754      0.02807      6.56904        -0.151746     -0.001868     -0.039126
O       9.30824      3.68409     10.63378        -0.112649      2.494122     -0.208714
O       9.32285      0.03048     10.59764         0.286441     -1.882163      0.262854
O       9.41107      7.53485      2.47772        -0.048979     -0.271227     -0.268895
O       9.20452      7.50110     14.71106         0.743878      0.662425      0.264960
O       9.33469      7.50288      6.58894         0.077026      0.279846     -0.007298
O       9.46970      7.44749     10.68848        -0.531383      0.398333     -0.257455
O       9.23571     11.29255      2.55310         0.534332     -0.850380     -0.238615
O       9.42638     11.29082     14.93627        -0.265682      0.162951     -1.012970
O       9.33325     11.31637      6.48677        -0.156772     -1.638115      0.430123
O       9.14597     11.25637     10.73916         1.105131     -0.547540     -0.866222
