  # total energy = -7882.41483682 
CRSYTAL
PRIMVEC
    15.6000000000000000    0.0000000000000000    0.0000000000000000
     0.0000000000000000   15.6000000000000000    0.0000000000000000
     0.0000000000000000    0.0000000000000000    17.640000000000000
PRESSURE
-2.52603 -2.16536 2.9652 0.090809 -0.294758 0.017382
PRIMCOORD
320 1
Pb       3.76966      3.75515      4.37372         0.393967      0.482229     -0.149384
Pb       3.88931      3.91904     17.57017        -0.130750     -0.211783      0.301408
Pb       3.88508     15.55550      4.30028        -0.296845     -0.463864      0.097664
Pb       3.81410     15.55146     17.50669        -0.089223      0.464848      0.677629
Pb       0.05146      3.88162      4.37671        -0.399354      0.172758     -0.234931
Pb      15.58689      3.95187     17.62228         0.204409     -0.088512     -0.266191
Pb      15.53409     15.53048      4.28310         0.236370      0.339455      0.297143
Pb      15.48281      0.04046     17.52641         0.348333     -0.344525      0.260372
Pb       3.82693      3.94519      8.76959        -0.046203     -0.135329      0.243733
Pb       3.82583      0.05457      8.69564         0.152430     -0.657549      0.644374
Pb      15.57211      3.91675      8.66308        -0.285185      0.204973      0.917175
Pb       0.01268     15.59348      8.73729        -0.101710     -0.029971      0.433082
Pb       3.91682      3.64344     13.21675         0.027187      1.009292      0.007667
Pb       3.81028     15.52557     13.15394         0.247408     -0.077515     -0.214786
Pb      15.58202      3.76849     13.14734         0.109828      0.675995      0.418586
Pb      15.58934      0.12268     13.11639        -0.018678     -0.620542      0.299601
Pb       3.88249      7.82897      4.39131         0.246793     -0.721403     -0.108432
Pb       3.95935      7.81667     17.56625        -0.547160     -0.263573      0.267201
Pb       0.02923      7.99095      4.40844        -0.167228     -1.185604     -0.232367
Pb       0.03953      7.85958     17.51732        -0.088528     -0.283245      0.082545
Pb       3.90420      7.90574      8.82599         0.287134     -0.476260      0.046593
Pb      15.56522      7.81105      8.82220        -0.133013     -0.141188      0.447437
Pb       3.89973      7.79762     13.10098         0.317764     -0.588305      0.435028
Pb       0.06529      7.89458     13.15650        -0.103867     -0.511222      0.543192
Pb       3.91117     11.62907      4.34837        -0.400713      0.899712      0.547741
Pb       3.93988     11.63120     17.53747        -0.351627      0.054869      0.590362
Pb      15.50006     11.51879      4.25221         0.525303      1.036569      0.832898
Pb      15.55095     11.62686     17.48047        -0.067065      0.366135      0.514422
Pb       3.83868     11.56386      8.71071         0.102472      1.209720      0.776989
Pb      15.52256     11.76248      8.78689         0.169431     -0.260241      0.284288
Pb       3.84546     11.75453     13.13469         0.118091      0.022924      0.094074
Pb      15.51739     11.61941     13.14258        -0.028420      0.291507      0.012413
Pb       7.87300      3.68954      4.47596        -0.540189      0.912018     -0.144754
Pb       7.78562      3.82858     17.53382         0.111855      0.233481      0.333238
Pb       7.70779     15.47260      4.28986         0.218297      0.161698      0.974233
Pb       7.76537     15.57958     17.62501        -0.132414      0.184643     -0.296936
Pb       7.70288      3.90568      8.71737         0.039898      0.094445      0.832447
Pb       7.81877     15.58482      8.66662        -0.015099     -0.277128      0.803368
Pb       8.02653      3.95828     13.06771        -0.530812     -0.319519      0.664228
Pb       7.79391      0.03271     13.21889        -0.067570     -0.031517     -0.188680
Pb       7.93722      7.76913      4.35855        -0.767034     -0.327049     -0.102777
Pb       7.81690      7.91100     17.62278        -0.175804     -0.859972      0.212402
Pb       7.75415      7.82268      8.72047        -0.597047      0.156477     -0.054185
Pb       7.77124      7.93049     13.05264        -0.355931     -0.604701      0.939645
Pb       7.85656     11.71785      4.38073        -0.021470     -0.227871      0.586709
Pb       7.77923     11.70591      0.01583         0.167753      0.140503     -0.154377
Pb       7.84348     11.70623      8.93305        -0.307251      0.142475     -0.438717
Pb       7.79568     11.76863     13.17825        -0.042039     -0.217052     -0.080740
Pb      11.64393      3.88042      4.42287         0.619235      0.315351     -0.056676
Pb      11.87876      3.83429     17.57657        -1.370685      0.292039      0.603732
Pb      11.52310     15.43111      4.39580         0.595515      0.185014      0.149256
Pb      11.48666     15.49043     17.59645         0.709293      0.227727      0.254530
Pb      11.54253      3.90476      8.74926         0.486910      0.089780      0.654615
Pb      11.81262      0.06680      8.67723        -0.501396     -0.382866      0.455885
Pb      11.79929      3.91425     13.18383        -0.724066      0.185643      0.116832
Pb      11.69066     15.56433     13.14582        -0.118250     -0.128364      0.342577
Pb      11.76548      7.70069      4.25029         0.012170     -0.136652      0.104014
Pb      11.72936      7.72243     17.48939        -0.420565     -0.280706      0.373561
Pb      11.57898      7.79170      8.67248         0.533846      0.000031      0.591894
Pb      11.75752      7.73062     13.20176        -0.409044     -0.128602      0.380280
Pb      11.69209     11.66347      4.22356         0.074699     -0.119252      0.560570
Pb      11.82466     11.55001     17.42332        -0.433583      0.735575      1.129869
Pb      11.73102     11.60462      8.57162        -0.015067      0.220211      1.158449
Pb      11.60911     11.61108     12.98057         0.392125      0.352914      1.250716
Ti       1.91583      1.92943      2.40438        -0.060793     -0.155988      0.849537
Ti       1.85801      2.00735     15.67054         0.278776     -0.289175      1.983150
Ti       1.89286     13.60613      2.37422         0.560518      0.397901      0.813759
Ti       1.95728     13.62941     15.66824        -0.867336      0.286413      1.034183
Ti      13.60858      1.89744      2.46887         0.262819     -0.117739     -0.297754
Ti      13.50237      1.90007     15.74859         0.814340     -0.203530     -0.435040
Ti      13.68033     13.59810      2.40459        -0.286960      0.012319      0.765971
Ti      13.64382     13.64093     15.58015        -0.134811     -0.352147      1.049637
Ti       1.89596      1.99526      6.81953        -0.136726     -0.575416      0.435097
Ti       1.88067     13.68053      6.84667         1.047324     -0.546443     -0.040473
Ti      13.61980      1.94355      6.82326         0.315960      0.389535     -0.243065
Ti      13.66168     13.63171      6.76438        -0.434901     -0.076168      0.518996
Ti       1.96770      1.94475     11.15700        -0.102752     -0.542017      0.151202
Ti       1.88175     13.58379     11.18956         0.009672      0.796254      0.393987
Ti      13.56351      1.96290     11.22070         0.306864     -0.461744     -0.361716
Ti      13.60901     13.63022     11.23937         0.407951     -0.245442      0.287637
Ti       1.89587      5.87704      2.32224         0.099019     -0.023405      2.078287
Ti       1.88044      5.87847     15.63240         0.222015     -0.002538      1.651172
Ti      13.68217      5.69435      2.30889        -0.375717      1.179675      1.826021
Ti      13.56432      5.79484     15.67204         0.275342      0.629849     -0.057469
Ti       1.91265      5.93717      6.89151        -0.463129     -0.326601      0.354047
Ti      13.58854      5.85642      6.90979         0.267729     -0.056662      0.057475
Ti       1.94630      5.80793     11.28444         0.081465      0.113355     -0.213378
Ti      13.68449      5.87438     11.32139         0.094709     -0.466165     -0.272791
Ti       2.01070      9.73829      2.38813        -1.037334     -0.000330     -0.381096
Ti       1.94023      9.79672     15.60621        -0.196381     -0.937642      0.011601
Ti      13.63037      9.65630      2.40581        -0.396176      0.022309      0.849488
Ti      13.59290      9.69395     15.61104         0.682171     -0.151534      0.423132
Ti       1.89917      9.74281      6.89604        -0.123203      0.260326      0.614673
Ti      13.67129      9.72209      6.81682        -0.184059     -0.504138      0.550194
Ti       1.94665      9.72635     11.22946        -0.781696      0.086680      0.457343
Ti      13.60262      9.66834     11.22534         0.338970      0.981541      0.555943
Ti       5.88381      1.92728      2.51068        -0.830178      0.350889     -1.154189
Ti       5.76479      1.99998     15.58176         0.227737     -0.549342      0.242890
Ti       5.89712     13.53678      2.41796        -1.302571      0.979806      0.356422
Ti       5.80747     13.69644     15.68860         0.516941      0.139374     -0.470110
Ti       5.80562      1.88157      6.90202        -0.061863      0.216586     -0.378673
Ti       5.85016     13.60640      6.90670        -0.069777     -0.166049      0.863897
Ti       5.88276      1.99171     11.26880         0.173154     -0.796552      0.553248
Ti       5.83887     13.69162     11.26736        -0.131374      0.047486     -1.358592
Ti       5.73160      5.74287      2.50068         0.891364      0.891761      1.977914
Ti       5.80184      5.85134     15.73754         0.243327      0.099479     -0.521789
Ti       5.69027      5.77720      6.80846         0.602460      1.190277      0.328003
Ti       5.84955      5.80113     11.19376        -0.754537      0.456385      1.430760
Ti       5.82382      9.74117      2.54148         0.938469     -1.256499     -0.492305
Ti       5.87479      9.78783     15.70020        -0.775492     -0.849113     -0.728625
Ti       5.82207      9.82399      6.78252         0.751922     -0.965138      0.784685
Ti       5.78744      9.79921     11.25059         0.380055     -0.255908      0.493336
Ti       9.79016      1.91616      2.50815        -0.221034     -0.059247     -0.710969
Ti       9.65472      1.91279     15.59249         0.072299      0.595304      0.240214
Ti       9.73834     13.60683      2.36315         0.369119      0.082418      0.564297
Ti       9.75075     13.60836     15.66758        -0.292198     -0.011894      0.448068
Ti       9.71916      2.00317      6.87945         0.020071     -0.936790      0.545393
Ti       9.80889     13.62314      6.88365        -0.977970      0.254790      0.440619
Ti       9.75023      1.83779     11.20239        -0.497692      0.974523      0.652709
Ti       9.71553     13.60136     11.18600        -0.317227      0.137511      0.979550
Ti       9.66933      5.72090      2.43066        -0.109265      0.889275      0.235358
Ti       9.63108      5.81167     15.66537         0.425684     -0.253987      0.754084
Ti       9.62886      5.88811      6.86685         0.196545     -0.161396      0.961766
Ti       9.70233      5.90678     11.21432         0.313631     -1.122920      0.844138
Ti       9.69869      9.71893      2.43007         0.291656     -0.263980     -0.221412
Ti       9.70193      9.74360     15.71008         0.066614     -0.356561     -0.878296
Ti       9.72446      9.77492      6.80752        -0.623987      0.162488      0.015619
Ti       9.73038      9.68429     11.23356        -0.448529      0.794745      0.636080
O       2.03031      1.99120      0.71732        -0.371059     -0.223900     -1.733797
O       1.80334      1.99688     14.00034         0.136313      0.131438     -2.799023
O       1.90691     13.74101      0.66446        -0.012292     -0.363199     -0.761761
O       2.04043     13.62728     13.98557         0.044870     -0.145910     -1.937675
O      13.52905      1.98688      0.73284         0.212300      0.188478     -1.012989
O      13.59872      1.79531     14.03852        -0.236494      0.164473     -1.081015
O      13.71337     13.43361      0.73435        -0.160555      0.074028     -1.964480
O      13.58584     13.61263     13.88942         0.011213      0.342026     -1.532214
O       1.77701      1.82688      5.11401         0.337855      0.616869     -0.801167
O       2.02233     13.65112      5.14193        -0.359000      0.033982     -0.437479
O      13.74353      1.96521      5.10541        -0.387853      0.050900     -0.566946
O      13.61612     13.69090      5.06635        -0.087151     -0.292139     -1.525762
O       1.97563      1.83374      9.43252        -0.259137      0.458780     -0.680557
O       1.78169     13.71270      9.48707         0.123838     -0.041260     -1.487582
O      13.51269      1.86199      9.48112         0.158093      0.095361     -0.065989
O      13.65973     13.59071      9.51827         0.019958      0.234141     -0.425941
O       1.86590      5.92205      0.65485        -0.101292     -0.166287     -2.459652
O       1.95638      5.78472     13.96550         0.033916     -0.017969     -2.239223
O      13.49509      5.69535      0.60172         0.409775      0.125146     -1.380893
O      13.49707      5.79477     13.96171        -0.028961      0.069829     -1.884414
O       1.86413      5.95843      5.18227         0.157723     -0.119486     -0.776931
O      13.59446      5.75208      5.20758         0.018761      0.497716     -0.798792
O       1.89572      5.88811      9.55620         0.154639     -0.426103     -0.672554
O      13.74325      5.87008      9.61666        -0.310910      0.059905     -0.858675
O       1.85406      9.77325      0.66371         0.295848     -0.037821     -0.186449
O       1.83175      9.80160     13.86973         0.308665      0.111739     -0.605780
O      13.55307      9.72450      0.72113         0.210065      0.073802     -2.413806
O      13.65091      9.73942     13.92436        -0.091717     -0.186457     -1.830104
O       2.00875      9.71796      5.18508        -0.297012     -0.099441     -1.331865
O      13.68910      9.56084      5.10594         0.096674      0.399927     -1.233313
O       1.92320      9.74396      9.52847         0.160071     -0.185042     -1.577363
O      13.61744      9.71964      9.53417        -0.063672     -0.062408     -1.396920
O       5.81124      2.03935      0.77355         0.284561     -0.313975      0.064643
O       5.75309      1.96852     13.85795         0.081400     -0.104838     -1.103172
O       5.89079     13.61506      0.70662         0.004679     -0.273942     -1.159896
O       5.71544     13.72876     13.95098         0.196883     -0.237966     -0.259858
O       5.77893      1.85869      5.17686         0.345913      0.125549     -0.694660
O       5.87252     13.58939      5.20249         0.050701      0.104612     -1.563095
O       5.91186      1.89360      9.58239        -0.232302      0.211864     -2.145168
O       5.84886     13.58924      9.51898         0.079308      0.172305     -0.108143
O       5.84280      5.72243      0.83886         0.053534     -0.084899     -3.055934
O       5.74583      5.95848     14.04852         0.041051     -0.123983     -1.255076
O       5.52498      5.82335      5.10373         0.325992     -0.116418     -0.429265
O       5.82911      5.94705      9.50635        -0.081851     -0.382311     -1.696804
O       5.86223      9.77864      0.81274        -0.091505      0.087648     -1.231903
O       5.73411      9.71081     13.98126         0.441951      0.055974     -0.684164
O       5.81613      9.81470      5.06227        -0.156183      0.033154     -1.265039
O       5.74189      9.73991      9.55256         0.066902      0.217670     -1.389433
O       9.63850      1.95518      0.78917         0.200733     -0.329339     -0.431858
O       9.68491      1.85029     13.86777         0.162995     -0.010867     -0.847071
O       9.61129     13.78594      0.66590         0.235226     -0.290905     -1.039255
O       9.66156     13.67933     13.97140         0.141004     -0.200343     -1.494994
O       9.77866      1.99493      5.16328        -0.169839      0.089706     -1.346131
O       9.74167     13.57090      5.16642         0.323509      0.193130     -1.320134
O       9.77108      1.94986      9.50055         0.092138     -0.358695     -1.142629
O       9.58458     13.58682      9.50282         0.384366     -0.014186     -1.798750
O       9.59755      5.76690      0.72900         0.013460     -0.042373     -0.929669
O       9.63723      5.81724     13.97150         0.112548     -0.015322     -2.401248
O       9.76709      5.83059      5.18684        -0.069714     -0.035567     -1.613161
O       9.62069      5.97540      9.51787         0.157913      0.102203     -1.503255
O       9.62050      9.72049      0.69772         0.136222     -0.155341     -0.671784
O       9.68877      9.77370     13.98324        -0.061843     -0.019336     -0.462887
O       9.71137      9.78133      5.09093        -0.048552      0.037641     -1.007209
O       9.62240      9.72186      9.54747         0.282893     -0.132205     -1.918418
O       3.84175      1.88872      2.83523         0.472871     -0.011877      0.569569
O       3.82979      2.02300     15.89270         0.172938      0.027221      0.664689
O       3.88324     13.62398      2.80670         0.272408     -0.093999      0.092370
O       3.84900     13.54343     16.09132         0.734865      0.226544      0.335297
O      15.56008      1.98018      2.82120         0.042595     -0.125857      0.114525
O      15.53929      1.99133     16.03428        -0.404375     -0.361168      0.832795
O      15.55675     13.54440      2.80941         0.716685      0.148124      0.327725
O      15.59032     13.65946     15.98786        -0.345510     -0.176362      0.270076
O       3.85438      1.97722      7.16926        -0.131278     -0.253828      0.434761
O       3.89188     13.70968      7.26717        -0.567004     -0.343088      0.148672
O      15.52464      1.96489      7.27258         0.195844     -0.025458      0.062233
O      15.52336     13.57092      7.22044         0.716930      0.498767      0.117347
O       3.87730      1.94533     11.54248        -0.423470     -0.084019      0.556448
O       3.85843     13.65609     11.62726        -0.077220      0.073079      0.384047
O      15.55710      1.98504     11.65101        -0.153280     -0.313624     -0.252093
O       0.00898     13.65688     11.63632        -0.882158     -0.319503      0.408389
O       3.83070      5.87309      2.72683        -0.430525     -0.113689      0.645079
O       3.82762      5.82908     16.12964         0.277710      0.046867      0.295854
O      15.57359      5.78962      2.72844        -0.056429     -0.196537      0.180742
O      15.50909      5.92583     16.02035         0.237682     -0.527426      0.467570
O       3.82929      5.82204      7.30560        -0.009390      0.185240      0.320402
O      15.57265      5.89277      7.39148        -0.179433     -0.237670     -0.432782
O       3.89018      5.87045     11.61827        -0.133994     -0.190484      0.233318
O      15.59243      5.80936     11.70661        -0.291663     -0.097381      0.380895
O       3.90903      9.73590      2.84396        -0.602224      0.109073      0.031713
O       3.85411      9.73850     16.04575         0.169089      0.175605      0.295319
O      15.55218      9.72174      2.82237         1.085223      0.136533      0.065058
O      15.53882      9.71587     15.96459         0.323129      0.114361      0.547369
O       3.85201      9.75297      7.27476         0.096929      0.003698     -0.063896
O      15.54821      9.71242      7.24173         0.460643      0.157992      0.111353
O       3.81580      9.76121     11.60832         0.844561     -0.111080      0.361347
O      15.57394      9.68882     11.61935        -0.069386      0.563007      0.322699
O       7.81350      1.88459      2.95268        -0.051319      0.301933      0.087542
O       7.73709      1.82410     15.94111        -0.062991      0.080374      0.458478
O       7.81962     13.58200      2.81413         0.023893      0.038193      0.188132
O       7.79521     13.70457     16.07309        -0.931387     -0.266146      0.204571
O       7.78536      2.00430      7.32041        -0.361012     -0.253333     -0.426153
O       7.83538     13.58182      7.26326        -0.174902      0.202579      0.295231
O       7.81612      1.94378     11.60389         0.339061     -0.258361      0.471767
O       7.75195     13.59680     11.57696         0.404747      0.063163      0.862031
O       7.73720      5.78902      2.98910         0.883525     -0.340142      0.108550
O       7.76419      5.84449     16.10036        -0.780921     -0.021387      0.459399
O       7.68963      5.79833      7.24121         0.152602      0.463437     -0.266095
O       7.73711      5.78437     11.64809         0.690327      0.825413     -0.003272
O       7.78510      9.82931      2.84005         0.535906     -0.409162      0.417228
O       7.77184      9.81015     16.07856        -0.109280     -0.641593      0.350810
O       7.77564      9.80030      7.23497        -0.084617     -0.099393      0.094484
O       7.76007      9.81031     11.59970        -0.028385     -0.246500      0.437706
O      11.70192      1.90979      2.88952        -0.216471     -0.131299      0.373520
O      11.62564      1.94567     16.10815        -0.274462     -0.249879     -0.040572
O      11.70548     13.61979      2.83617        -0.503277      0.117601     -0.088250
O      11.72327     13.54505     16.09914        -0.763935      0.470648     -0.050696
O      11.63225      2.02293      7.29503         0.572952     -0.315975     -0.203148
O      11.73378     13.62708      7.30273        -0.266699     -0.043011     -0.234775
O      11.66184      1.97714     11.69556         0.143562     -0.659118     -0.013123
O      11.64856     13.60599     11.59014         0.390663      0.138456      0.082865
O      11.69298      5.78270      2.79640         0.061161      0.215677      0.307427
O      11.60080      5.80533     16.04868         0.404079      0.044943      0.425460
O      11.61793      5.81633      7.33058         0.003362      0.539101     -0.055859
O      11.64031      5.82602     11.67451         0.441970      0.401380      0.189523
O      11.68666      9.74290      2.81659        -0.380266     -0.379339      0.163146
O      11.68577      9.70693     15.99990        -0.658500     -0.101945      0.312144
O      11.69582      9.62731      7.14774        -0.323727      0.719307      0.360222
O      11.65185      9.70416     11.61719         0.319282     -0.101122      0.080081
O       1.92632      3.88887      2.78099         0.070198     -0.024888      0.435625
O       1.84496      3.95270     16.18371         0.097898     -0.397222     -0.221119
O       1.87773     15.56768      2.84888        -0.011133     -0.241330     -0.042648
O       1.94024      0.00279     16.02958         0.014565      0.029085      0.227698
O      13.61512      3.89340      2.83832         0.076924     -0.530298      0.264833
O      13.57295      3.90410     15.95182         0.157421     -0.974430      0.751627
O      13.69407     15.54908      2.62410        -0.073146      0.239778      0.763517
O      13.51470     15.53009     16.20105         0.346783      0.417245     -0.302879
O       1.89384      3.90487      7.22236         0.073186     -0.001538      0.082033
O       1.84822      0.02209      7.23315         0.056174     -0.185158      0.172176
O      13.56729      3.92063      7.19455         0.296165     -0.340473      0.702077
O      13.61733     15.55629      7.07322        -0.146702      0.782426      0.831518
O       1.91694      3.85049     11.67394         0.090521     -0.129177     -0.090649
O       1.84700     15.59339     11.57888         0.460077      0.642350      0.527466
O      13.58456      3.85441     11.63709         0.129996      0.186853      0.338491
O      13.62396     15.58958     11.70916        -0.166116      0.071547     -0.292166
O       1.87925      7.81246      2.73010         0.269220      0.502603      0.577772
O       1.88912      7.81114     15.97920         0.189052      0.530944      0.377321
O      13.77017      7.77179      2.74972        -0.840002     -0.669485      0.371057
O      13.57377      7.75157     15.98490        -0.183503      0.487582      0.543356
O       1.90263      7.80631      7.29158         0.234407      0.341189      0.269057
O      13.64461      7.83900      7.30181        -0.222753     -0.833992      0.183511
O       1.83876      7.77047     11.60067         0.577741      0.186446      0.478225
O      13.67271      7.80793     11.69870        -0.369804     -0.517005      0.220783
O       1.92221     11.68440      2.85846         0.153204     -0.556488     -0.172692
O       1.91514     11.65090     16.14051         0.013795      0.343439     -0.328241
O      13.67357     11.61178      2.85005        -0.512403      0.238709      0.213109
O      13.59258     11.66317     15.90184         0.441716     -0.049540      0.654379
O       1.88083     11.66434      7.33643         0.081717      0.397244     -0.227901
O      13.64300     11.68634      7.21878        -0.184841     -0.487610     -0.196280
O       1.96666     11.71097     11.50413        -0.333285     -0.568751      0.706773
O      13.64037     11.65031     11.65027        -0.062972      0.229374      0.045399
O       5.79341      3.85042      2.93384        -0.037500     -0.806348      0.568171
O       5.84172      3.85999     16.00386        -0.109230      0.153131      0.414043
O       5.89222     15.54789      2.79631        -0.096494     -0.147159      0.374246
O       5.71477      0.00656     16.04490         0.134734     -0.291438      0.228034
O       5.75523      3.88235      7.24490         0.075679     -0.113836      0.254724
O       5.86206     15.56849      7.26416         0.034327      0.579874      0.194540
O       5.84427      3.88362     11.61411        -0.249960      0.260883      0.224003
O       5.83811     15.59960     11.64699        -0.075563     -0.022305      0.543566
O       5.89086      7.75463      2.80021        -0.316568      0.850593      0.719264
O       5.75303      7.76374     16.12597         0.651112      0.966346      0.478856
O       5.76959      7.88649      7.16872         0.015666     -0.726504      0.421641
O       5.83844      7.80157     11.56544        -0.086269      0.402509      0.645103
O       5.86115     11.69451      2.93234        -0.121026     -0.053663     -0.130798
O       5.85955     11.65221     16.07237        -0.139368      0.919242      0.284307
O       5.83962     11.68150      7.26202        -0.348316      0.056212      0.275644
O       5.87164     11.72270     11.70688        -0.643437     -0.366581      0.211602
O       9.79227      3.85068      2.86847        -0.467499     -0.422804      0.551951
O       9.61122      3.85084     15.95429         0.123076     -0.683114      0.338360
O       9.73671     15.55015      2.85434         0.003512     -0.205778      0.279634
O       9.71023     15.56263     16.04458         0.349060      0.254204      0.409947
O       9.65820      3.91729      7.24213         0.151852      0.253956      0.323215
O       9.76125      0.00575      7.14996         0.061727      0.021497      0.470542
O       9.72967      3.91640     11.44566         0.046827     -0.075044      0.836919
O       9.68644     15.49968     11.62825         0.301417      0.834370      0.106111
O       9.74280      7.72566      2.83392        -0.207638      0.635596      0.130016
O       9.67958      7.72646     15.98268         0.071221      1.498523      0.881836
O       9.67135      7.85163      7.18042        -0.117299     -0.763060      0.386384
O       9.75579      7.82516     11.67494        -0.390583     -0.509945      0.166343
O       9.78284     11.70073      2.72271        -0.147332     -0.160092      0.340602
O       9.65235     11.69582     16.06570         0.328528     -0.314278      0.357303
O       9.74950     11.68849      7.21290         0.299271     -0.285011      0.463563
O       9.70618     11.66426     11.60680        -0.080413      0.055343      0.274843
