  # total energy = -7879.88973864 
CRSYTAL
PRIMVEC
    15.2000000000000000    0.0000000000000000    0.0000000000000000
     0.0000000000000000   15.2000000000000000    0.0000000000000000
     0.0000000000000000    0.0000000000000000    17.000000000000000
PRESSURE
8.43163 7.843 1.77519 0.379153 -0.171453 0.052761
PRIMCOORD
320 1
Pb       3.73542      3.80891      4.16726        -0.080536     -0.217899      0.348517
Pb       3.93494      3.89982     16.97760        -0.756459     -0.443700      0.416097
Pb       3.67414      0.10079      4.32362         0.260843     -0.078264     -0.513064
Pb       3.85082     15.17162      0.00275        -0.113300      0.156765      0.143431
Pb       0.01197      3.98609      4.27379         0.103112     -0.596966      0.221197
Pb      15.15004      3.65772      0.07116         0.302127      1.080347     -0.537638
Pb       0.05890      0.14643      4.25770        -0.499193     -0.557568      0.144631
Pb      15.12183     15.13175     16.98065         0.214785      0.258794      0.310101
Pb       4.08019      3.64398      8.45977        -1.271139      0.860570      0.968186
Pb       3.78278     15.07815      8.68652         0.453569     -0.480326     -0.421477
Pb       0.08499      3.77620      8.47193        -0.350895     -0.018212     -0.001239
Pb      15.18290     15.04693      8.60240        -0.336117      0.607185     -0.415374
Pb       3.73026      3.83699     12.74408         0.322782     -0.481234     -0.138972
Pb       3.64022      0.00938     12.80035         0.397586     -0.414049      0.203436
Pb      15.17973      3.72985     12.67778         0.397476      0.263373      0.655250
Pb      15.19797      0.10141     12.81342         0.067648     -0.724046     -0.162423
Pb       3.80066      7.47020      4.21729        -0.925703      0.337617      0.171919
Pb       3.88827      7.57922      0.09598        -0.469741     -0.039781      0.063544
Pb      15.16490      7.58653      4.13561         0.525201      0.287219      0.205479
Pb      15.17417      7.55468     16.87388        -0.131108     -0.254269      0.497924
Pb       3.84948      7.64364      8.39014        -0.180832     -0.253440      0.569422
Pb      15.15018      7.48933      8.38066         0.437843      0.154332      0.556505
Pb       3.70607      7.51730     12.65773        -0.312248      0.497889      0.230787
Pb      15.14179      7.55846     12.59702         0.407171      0.177534      0.560738
Pb       3.61473     11.33013      4.26236         0.225615      0.650064     -0.095761
Pb       3.89003     11.31723      0.25786         0.152448      0.512281     -0.307021
Pb      15.13693     11.42645      4.20754        -0.133785      0.222831      0.213905
Pb       0.03976     11.41369      0.05664        -0.719821      0.339109     -0.082879
Pb       3.87711     11.36032      8.53365        -0.297467      0.481733     -0.168858
Pb      15.09514     11.32969      8.50174         0.409376     -0.044071     -0.204663
Pb       3.60713     11.25106     12.90388         0.032260      0.413050     -0.034897
Pb      15.13714     11.27719     12.76084         0.219727      0.366430      0.297209
Pb       7.43960      3.61968      4.14764         0.474292      0.187829      0.767818
Pb       7.54887      3.76971     16.91622         0.496739      0.152598      0.040244
Pb       7.55559     15.11328      4.31970         0.124278      0.113579     -0.440594
Pb       7.64043     15.09191      0.00608        -0.201608      0.537456     -0.155489
Pb       7.68892      3.79357      8.41830        -0.162891     -0.201064      0.354541
Pb       7.62899     15.14622      8.37543        -0.350357     -0.225840      0.760213
Pb       7.53139      3.86649     12.75943         0.158154     -0.479052     -0.018292
Pb       7.64151      0.11086     12.69778        -0.397858     -0.365127      0.282044
Pb       7.69988      7.44143      4.34591         0.151793      0.727393      0.055495
Pb       7.47051      7.70310     16.89556         0.387859     -0.332250      0.180412
Pb       7.60621      7.62914      8.44491        -0.026991      0.131555     -0.052183
Pb       7.55327      7.64865     12.78287         0.196961     -0.284957     -0.050988
Pb       7.52315     11.18042      4.28108         0.420270      0.668804      0.026358
Pb       7.78596     11.46308     16.90421        -1.097308     -0.351609      0.317499
Pb       7.56225     11.45778      8.46310         0.304782     -0.149155      0.345768
Pb       7.50544     11.28526     12.67255         0.497186      0.788994      0.653231
Pb      11.32324      3.75735      4.20561         0.379904      0.214644      0.523307
Pb      11.37253      3.69000      0.02750        -0.265700      0.137602     -0.372652
Pb      11.39674     15.13644      4.27216         0.641719      0.344520     -0.302646
Pb      11.41976     15.02262     16.94463        -0.377115      1.463132      0.757636
Pb      11.43382      3.79357      8.48285         0.016816      0.057508      0.023733
Pb      11.38201      0.02625      8.30441        -0.302843     -0.015973      1.136004
Pb      11.32680      3.82117     12.79028         0.000519     -0.292076     -0.118453
Pb      11.45786      0.04060     12.64517        -0.357482      0.149503      0.531467
Pb      11.43360      7.62807      4.17724        -0.026295     -0.108120      0.187451
Pb      11.24199      7.48115     16.89192         0.765238      0.293048      0.458617
Pb      11.32134      7.53535      8.39724         0.073946     -0.017099      0.498415
Pb      11.32145      7.54754     12.62031         0.329690      0.063298      0.614155
Pb      11.34919     11.20609      4.28168         0.215412      0.527287     -0.505547
Pb      11.38862     11.57111     16.87820         0.634968     -0.894041      0.676017
Pb      11.49434     11.44450      8.55787        -1.024759     -0.199508     -0.112443
Pb      11.38800     11.43993     12.63678        -0.233055     -0.275110      0.495939
Ti       1.87694      1.93354      2.14058         0.161164     -0.051001      0.104078
Ti       1.91442      1.97022     15.03086        -0.023771     -0.639578      0.254567
Ti       1.88494     13.38344      2.21972        -0.228561     -0.096832     -0.311447
Ti       1.88391     13.32902     15.15969         0.119471      0.870720     -1.597289
Ti      13.30684      2.02680      2.28191        -0.168033     -1.717838      0.800459
Ti      13.31071      1.90460     15.03951        -0.400883      0.703977      0.026971
Ti      13.21211     13.33564      2.33197         0.446873      0.407904     -0.610067
Ti      13.26606     13.33389     14.92029         0.455057     -0.775943      0.349241
Ti       1.95266      1.86354      6.64145        -0.519212      0.662896     -0.448502
Ti       1.80830     13.32808      6.54960         0.602048     -0.772461     -1.011142
Ti      13.34923      1.94740      6.49797        -0.220953     -0.315789     -0.685012
Ti      13.21925     13.26526      6.46017         0.412577      0.570202     -1.171670
Ti       1.94150      1.82352     10.74009        -0.516768      0.867228     -0.349305
Ti       1.77677     13.21997     10.78246         0.802081      0.687631      0.327181
Ti      13.33466      1.89391     10.74314        -0.946227     -0.671622     -1.496613
Ti      13.22229     13.23537     10.74790         0.571831      1.201362      0.653202
Ti       1.88299      5.68620      2.17581         0.382261      0.326874     -0.822774
Ti       1.94838      5.69797     14.98334        -1.527618     -0.242708      0.562317
Ti      13.27083      5.74455      2.19287        -0.261294      0.561819     -0.079116
Ti      13.34643      5.65351     14.93103        -0.594137      0.321768      0.400749
Ti       1.96541      5.70682      6.55547        -0.852837     -0.259444     -0.810747
Ti      13.31317      5.70763      6.40902        -0.598826     -0.865554      0.568635
Ti       1.84139      5.61231     10.66507         0.732214      1.167612     -0.853561
Ti      13.28602      5.62931     10.75349        -0.301594      0.238194     -1.602408
Ti       1.84047      9.62884      2.23429         0.272237     -2.032174     -0.156382
Ti       1.88322      9.56498     15.17046         0.448966     -0.745827     -1.710015
Ti      13.30110      9.55046      2.17427        -0.975777     -0.137254     -0.731841
Ti      13.32970      9.50426     14.99769        -0.552180      0.280533     -0.317176
Ti       1.88658      9.54753      6.49563        -0.699745     -0.250442     -0.859599
Ti      13.26068      9.44153      6.55788         0.058319      0.876975     -2.133107
Ti       1.88135      9.48520     10.65415        -0.873607     -0.543401     -0.921221
Ti      13.26324      9.46199     10.76946         0.103971      0.137794      0.420682
Ti       5.67491      1.83576      2.16787        -0.930895      0.164099      0.108176
Ti       5.69202      1.86217     14.98437        -0.114044      0.039308     -0.784054
Ti       5.69415     13.28598      2.32855        -0.837921      0.131003     -1.061823
Ti       5.62766     13.27784     14.92139         0.597896      0.818324     -0.168813
Ti       5.73328      1.78217      6.53372        -0.504949      0.562714     -0.456787
Ti       5.62972     13.20589      6.38581        -0.565531      0.628665     -0.221629
Ti       5.68948      1.83900     10.79077         0.257190      0.262350      0.231624
Ti       5.57253     13.20382     10.97509         0.798124      1.477959     -0.492821
Ti       5.77957      5.73085      2.34859        -2.619501     -0.731955     -1.978414
Ti       5.67081      5.73162     14.99117         0.706054      0.127245     -0.290084
Ti       5.74424      5.69453      6.51403        -0.927873     -0.128631     -0.726749
Ti       5.66811      5.72748     10.78638         0.186748     -1.083120     -1.363794
Ti       5.71432      9.49048      2.32682        -0.437792     -0.268797     -0.244929
Ti       5.60335      9.57070     15.03559         0.756418     -0.341133     -0.666338
Ti       5.65753      9.49597      6.34797         0.618219     -0.355674      0.246759
Ti       5.64549      9.48976     10.77131        -0.100243      0.422090     -1.064010
Ti       9.48387      1.83733      2.31557         0.317178     -0.064214     -1.647123
Ti       9.51450      1.89946     14.98593        -0.008123      0.246835     -0.267209
Ti       9.43851     13.29866      2.27705         0.691852     -0.156761      0.415797
Ti       9.44688     13.30254     14.92669         0.273878      1.228895     -1.502984
Ti       9.53169      1.86380      6.38622        -0.625580      0.584039     -0.444230
Ti       9.45699     13.23360      6.40030        -0.566090     -0.260654      0.223276
Ti       9.45081      1.90091     10.67122         1.308129      0.322827      0.636838
Ti       9.39927     13.32496     10.82939         0.067966     -0.436197     -0.915410
Ti       9.47514      5.63932      2.23346         0.269475      1.101513     -0.529728
Ti       9.50456      5.73338     14.95346        -0.283870     -1.195534     -0.987680
Ti       9.50415      5.65347      6.46058         0.183485     -0.363828      0.603075
Ti       9.45580      5.67839     10.74088         0.354340     -0.252848     -0.157596
Ti       9.44837      9.50849      2.22322         0.722840     -0.404297     -0.141278
Ti       9.59538      9.52222     14.89912        -1.079498     -0.528664     -0.728283
Ti       9.49916      9.51435      6.48519        -0.566429      0.064730      0.282601
Ti       9.47373      9.51735     10.71619         0.684471      0.290745     -0.878326
O       1.91441      1.87351      0.37257        -0.260558      0.594481      0.721617
O       1.83226      1.88615     13.18933         0.201112      0.122546      0.590960
O       1.92447     13.38494      0.40776        -0.324734     -0.477772      0.033162
O       1.86686     13.46522     13.33629        -0.033521     -0.352438      0.113322
O      13.26716      1.94954      0.51576         0.054388      0.157138     -0.122155
O      13.38580      2.03950     13.27266        -0.233359     -0.675546     -0.385210
O      13.12812     13.30105      0.48809         0.209672     -0.152064      0.340285
O      13.28511     13.32183     13.16703        -0.106477     -0.032012      0.148982
O       1.87594      1.80432      4.82816         0.411542      0.003258      0.466138
O       1.82717     13.24846      4.73562         0.222334      0.569033      0.319996
O      13.31230      1.98406      4.69665         0.183226     -0.326127      0.218814
O      13.19364     13.27918      4.62218         0.202365     -0.143536      1.245204
O       1.88235      1.91317      8.95520        -0.036118     -0.239662      0.043067
O       1.88014     13.28087      8.99386        -0.254929     -0.080690      0.000302
O      13.23584      1.89254      8.89626         0.162958     -0.051655      1.078325
O      13.12748     13.24112      8.96486         0.449001      0.222288     -0.419076
O       1.95195      5.47502      0.37389        -0.140443      0.946419      1.320796
O       1.80994      5.61125     13.20932         0.575746      0.700789     -0.163635
O      13.24719      5.72336      0.43133        -0.099140      0.275393     -0.028349
O      13.18109      5.74222     13.15533         0.735540     -0.466383     -0.131525
O       1.79828      5.72189      4.73161         0.410666     -0.285188      0.335360
O      13.26181      5.73352      4.63081         0.258127      0.215070      0.041580
O       1.80187      5.71059      8.85737         0.023399      0.051779      0.327928
O      13.23714      5.64125      8.89538         0.239783      0.191703      1.374137
O       1.89604      9.61859      0.41642        -0.353612      0.231753      0.194021
O       1.91523      9.47163     13.25509         0.080885      0.064185      1.201382
O      13.31259      9.51262      0.37197         0.032618      0.203430      0.329376
O      13.42203      9.59464     13.20913        -0.252709     -0.407612     -0.232899
O       1.94014      9.58753      4.66284        -0.433135      0.104255      0.526555
O      13.07102      9.44427      4.66761         0.894725      0.357392      1.667544
O       1.86632      9.53620      8.82958        -0.015368      0.048144      0.683575
O      13.29784      9.59435      9.02797        -0.059725     -0.296372     -1.551320
O       5.65243      1.82569      0.39847         0.165398      0.472502      0.131568
O       5.65102      1.90698     13.15966         0.181919     -0.027548      0.891517
O       5.62446     13.24198      0.51158         0.366061      0.201234      0.404683
O       5.64730     13.34860     13.11693         0.148933     -0.165986      1.145804
O       5.56794      1.90739      4.73562         0.490422     -0.308055      0.449508
O       5.67309     13.14715      4.61078         0.137893      0.832143     -0.334153
O       5.67229      1.90601      8.96683         0.233515     -0.333065      0.366174
O       5.54135     13.29284      9.18111         0.291324     -0.472161     -0.910073
O       5.80173      5.76931      0.45914        -0.583700     -0.076465      0.917449
O       5.72094      5.69382     13.19281        -0.141776      0.386820      0.042847
O       5.69948      5.76062      4.67889        -0.096064     -0.400816      0.607881
O       5.71027      5.82234      8.94504         0.188071     -0.246768      0.835434
O       5.64067      9.44203      0.50452         0.172677      0.179229      0.205763
O       5.46970      9.47191     13.23625         0.280021     -0.107026     -0.392155
O       5.68088      9.42883      4.54533        -0.157398      0.214743      0.753271
O       5.64876      9.63123      8.93437         0.020922     -0.478904      1.110644
O       9.49322      1.91230      0.45580        -0.028164     -0.040832      1.510486
O       9.55905      1.99905     13.18080        -0.207089     -0.401323      0.370030
O       9.46091     13.42944      0.47470         0.134528     -0.654188     -0.327100
O       9.43183     13.31634     13.13228         0.248566      0.142282      0.470575
O       9.43977      1.86917      4.56810        -0.243189      0.244032      0.716947
O       9.28434     13.16339      4.64341         0.195250      0.457360     -0.031408
O       9.58945      1.88192      8.91761        -0.497080      0.047675     -0.637611
O       9.45071     13.22271      9.02846        -0.133675      0.190170     -0.276071
O       9.48845      5.75223      0.42638        -0.041235      0.073667      0.738266
O       9.51524      5.73102     13.07098        -0.051500      0.022679      1.303301
O       9.41067      5.57262      4.72613        -0.055850      0.217197     -0.744557
O       9.44371      5.59160      8.92365         0.017908      0.704004      0.309837
O       9.42697      9.47960      0.45000        -0.046866     -0.077923     -0.778621
O       9.53509      9.42682     13.09703        -0.395205      0.191236      0.759168
O       9.35829      9.55327      4.70116         0.762378      0.052921     -0.155713
O       9.50915      9.49168      8.91162        -0.109239      0.085102      0.075932
O       3.69264      2.02948      2.61441         0.767628      0.022319     -0.055403
O       3.78722      1.88170     15.37335         0.037888      0.222747     -0.345984
O       3.72309     13.16658      2.48400         0.488887     -0.370930      0.665002
O       3.83791     13.46328     15.27065        -0.793134     -0.254463      0.220046
O       0.01580      1.78153      2.69831        -0.219205      0.896368     -0.924238
O      15.17716      1.94927     15.48384        -0.133952     -0.105040     -0.421861
O      15.15164     13.47027      2.58468         0.231438     -0.454365     -0.032066
O      15.15625     13.27659     15.40577        -0.310246      0.116471      0.094844
O       3.83954      1.88537      6.97312        -0.314774     -0.226915     -0.412280
O       3.83450     13.28436      6.91313        -1.161584     -0.127405     -0.023619
O      15.17852      1.91844      6.88653         0.185629     -0.347773      0.069946
O      15.07476     13.32999      6.86900         0.337714      0.092697      0.240213
O       3.75722      1.93993     11.14025         0.753767     -0.349873     -0.173596
O       3.75167     13.38804     11.15475        -1.498850     -0.317710      0.230378
O       0.04322      1.83400     11.14360        -0.518395      0.279214     -0.265342
O      15.12121     13.28762     11.14881         0.556756      0.162961     -0.466087
O       3.75556      5.65079      2.62118         0.056865     -0.445262     -0.006649
O       3.78101      5.73451     15.28847         0.542382     -0.084433      0.196478
O      15.19532      5.73840      2.52226        -0.479783      0.464665      0.157512
O      15.19958      5.58777     15.34017         0.001563      0.807812      0.023742
O       3.76483      5.74309      6.93925         1.211401      0.001307     -0.509151
O      15.15286      5.63731      6.81270         0.113380      0.248737      0.041780
O       3.80012      5.70380     11.02709        -0.350895      0.309438      0.352205
O       0.01475      5.61743     11.07579        -0.806399      0.456608     -0.013151
O       3.71560      9.69996      2.55786         0.665768     -0.215053     -0.176348
O       3.81060      9.61503     15.46638        -1.156985     -0.266964      0.244763
O      15.13828      9.52744      2.68950         0.568244     -0.360930     -0.351118
O      15.18242      9.67665     15.40762         0.668775     -0.297811     -0.006771
O       3.77525      9.49773      6.79941         0.479387      0.373917     -0.092816
O      15.16798      9.47088      6.87126        -0.202633      0.336529     -0.155293
O       3.71050      9.41031     10.95122         0.932139      0.214367      0.474729
O      15.16527      9.54028     11.11696         0.539847     -0.210924     -0.112023
O       7.53869      1.79662      2.48294         0.392398     -0.208814      0.617840
O       7.58021      1.99549     15.21137         0.145306      0.048391      0.429833
O       7.57629     13.55532      2.47215        -0.598132     -0.130909      0.449537
O       7.65158     13.36242     15.28020        -1.462762     -0.160567      0.500659
O       7.60569      1.98774      6.79595        -0.334211     -0.690438      0.077356
O       7.42152     13.26684      6.89039         1.894092      0.265288      0.007769
O       7.62017      1.99040     11.06897        -0.768932     -0.044807      0.097658
O       7.56304     13.14672     11.13666        -0.365023      0.323722      0.143882
O       7.50768      5.80696      2.65259         2.723842     -0.191824      0.069532
O       7.58622      5.69624     15.36415        -0.046991      0.348165     -0.467131
O       7.55453      5.71171      6.84486         0.969966      0.119673      0.097651
O       7.61428      5.74424     11.22058        -0.305080     -0.038838     -0.577113
O       7.58498      9.31485      2.63777        -0.762351      0.199466     -0.221144
O       7.48322      9.53952     15.24346         1.555215     -0.283786      0.273273
O       7.62835      9.55153      6.83028        -0.964363     -0.389289     -0.030510
O       7.59258      9.62425     10.97774        -1.314111     -0.882321      0.437377
O      11.39884      1.95119      2.71328        -0.059263      0.274794     -0.517303
O      11.38437      1.91136     15.37926         0.533347      0.237879     -0.024977
O      11.32283     13.16034      2.66372         0.228621      0.436254      0.034364
O      11.31255     13.37529     15.31912         0.923693     -0.320997     -0.114300
O      11.34195      1.92476      6.65831         0.204515     -0.446414      0.415530
O      11.32282     13.24692      6.80016        -0.081428      0.206452     -0.129013
O      11.44086      1.78113     11.07129        -0.326736      0.745227      0.069658
O      11.38722     13.40759     11.15785        -0.650073     -0.822462     -0.133827
O      11.30050      5.68268      2.61333         1.008653     -0.044873     -0.238405
O      11.37896      5.72215     15.24763         0.453736      0.195865      0.376435
O      11.38232      5.70489      6.82809        -0.150247      0.104247     -0.123497
O      11.43255      5.53982     11.06695        -0.474387      0.835963     -0.147066
O      11.34040      9.56423      2.50352         0.459536      0.186810      0.408664
O      11.40159      9.54685     15.14171        -0.199089     -0.232850      0.614764
O      11.40296      9.52193      6.84593        -0.548638     -0.153614      0.252483
O      11.39747      9.48399     11.07317        -0.097668      0.549436      0.159448
O       1.78358      3.82802      2.75688         0.054778     -0.517990     -0.784642
O       1.91882      3.82070     15.41895         0.162345     -0.253353     -0.536299
O       2.05510      0.02819      2.53862        -0.474396      0.329268      0.455264
O       1.77455      0.09224     15.45771         0.290585     -0.698820     -0.360703
O      13.35303      3.91878      2.57883        -0.202377     -1.207370      0.101661
O      13.29132      3.81706     15.42896        -0.333876     -0.182980     -0.080124
O      13.21779      0.05032      2.59123        -0.501861     -0.179621      0.259269
O      13.24516      0.03324     15.39914         0.394973     -0.559642     -0.371049
O       1.87956      3.76800      6.93718         0.259665      0.175636     -0.455006
O       1.81844     15.15624      6.98745         0.315725      0.612888      0.122447
O      13.19315      3.80671      6.77339         0.258682      0.377045      0.153714
O      13.14414     15.19945      6.89201         0.789256     -0.390235     -0.663316
O       1.94484      3.84548     11.13490        -0.330839     -1.360712     -0.278410
O       1.88833     15.17809     11.05099        -0.171964     -0.146433      0.141864
O      13.40358      3.75547     11.09922        -0.456635     -0.120500     -0.175543
O      13.25739     15.16522     11.20847         0.980158      0.546473     -0.583572
O       1.94915      7.63482      2.43947        -0.299490     -0.080446      0.347642
O       1.92049      7.63999     15.50058        -0.240414     -0.194312     -0.526931
O      13.25945      7.67361      2.59132        -0.160324     -0.991690     -0.116668
O      13.35988      7.62870     15.24819         0.092102     -0.404678      0.268866
O       1.85163      7.62972      6.59642        -0.034187     -0.079325      1.165324
O      13.28896      7.60209      6.90363        -0.251229     -0.475134     -0.207967
O       1.80695      7.58858     10.98244         0.101445     -0.093905      0.384423
O      13.27403      7.58804     11.06077         0.263948     -0.743286     -0.045444
O       1.70841     11.44437      2.59222         0.037226      0.594569     -0.042328
O       1.99482     11.46153     15.32336        -0.251223     -0.273352      0.375303
O      13.34625     11.39710      2.54061        -0.058544      0.413207      0.304916
O      13.19486     11.46759     15.27114         0.012943     -0.031785      0.358039
O       1.78273     11.49592      6.79160         0.254245     -1.569075      0.493881
O      13.26199     11.37300      6.89398         0.038142      0.267312     -0.154630
O       1.84902     11.38444     11.14037         0.423857     -0.366106     -0.067643
O      13.29434     11.38212     11.10967        -0.407139      0.388730      0.028811
O       5.72599      3.74198      2.60249        -0.234234      0.577000     -0.236104
O       5.65179      3.86213     15.41381         0.164868     -0.522925     -0.466064
O       5.41836      0.02932      2.61233         0.474424     -0.576654      0.225636
O       5.69559      0.03375     15.44727         0.549570     -0.472792     -0.642601
O       5.72570      3.83720      6.87573        -0.129809     -0.380194     -0.310383
O       5.62569     15.15743      6.86988         0.556233      0.023968     -0.251037
O       5.65203      3.77914     11.20529         0.242607      0.724457     -0.520389
O       5.75317     15.19005     11.17794        -0.056453      0.750603     -0.303731
O       5.46648      7.53909      2.64210         0.567906      1.334186     -0.561758
O       5.57032      7.63443     15.37366         0.487444     -0.272194     -0.068555
O       5.73360      7.64891      6.77019        -0.209317     -0.199100      0.405963
O       5.70440      7.59299     11.09553         0.128494      0.908690      0.274387
O       5.78779     11.37799      2.60452         0.137135     -0.280076     -0.300333
O       5.68947     11.46833     15.36170        -0.035547     -0.104029      0.020000
O       5.75345     11.34098      6.70323        -0.662647     -0.023015      0.393251
O       5.53598     11.36387     11.31687        -0.004402     -1.413680     -0.575271
O       9.43613      3.80280      2.61825        -0.479247     -0.317861     -0.244974
O       9.55982      3.86511     15.38920        -0.366085     -0.494715     -0.150444
O       9.59451     15.17180      2.75227        -0.306892      0.429160     -0.363021
O       9.49459      0.05640     15.43206        -0.322966     -0.502603     -0.660483
O       9.48303      3.73889      6.89371         0.002437      0.633544     -0.444853
O       9.33543     15.15237      6.69275         0.363485      0.210455      0.146877
O       9.56948      3.79569     11.06940        -0.405342      0.158742     -0.034629
O       9.35245      0.02904     10.97757         0.171225     -0.360124      0.599965
O       9.59308      7.63992      2.76865        -0.877898     -1.002775     -0.769535
O       9.52262      7.58114     15.23748        -0.435335      1.290739      0.248171
O       9.47877      7.58679      6.71854        -0.065424     -0.164970      0.453512
O       9.58432      7.64445     11.00762        -0.595518     -1.169271     -0.012509
O       9.36874     11.42747      2.51655        -0.603743     -0.642273      0.092218
O       9.47444     11.41723     15.28486         0.146974     -0.300863      0.011403
O       9.46110     11.42609      6.79430        -0.076583     -0.434057      0.306832
O       9.43583     11.38578     11.16612         0.990772      0.080105     -0.074033
