  # total energy = -7878.80065323 
CRSYTAL
PRIMVEC
    15.6000000000000000    0.0000000000000000    0.0000000000000000
     0.0000000000000000   15.6000000000000000    0.0000000000000000
     0.0000000000000000    0.0000000000000000    17.640000000000000
PRESSURE
-6.13384 -6.16714 -3.48302 2.5e-05 0.130689 -0.024054
PRIMCOORD
320 1
Pb       3.81922      3.81193      4.43517        -0.084926      0.000004     -0.716154
Pb       3.97749      3.98514     17.61324        -0.299521     -0.188960     -0.885235
Pb       3.77196     15.45510      4.36053         0.374209      0.524031     -0.379070
Pb       3.77721     15.57001      0.04045        -0.030668      0.097508     -0.966598
Pb      15.56619      3.85526      4.38120         0.578611      0.530977     -0.641683
Pb       0.02953      3.99905      0.00400        -0.190974     -0.235790     -0.777523
Pb      15.56764     15.53777      4.35276        -0.115663     -0.479792     -0.483993
Pb      15.41328     15.59097     17.62586         0.368141      0.238739     -0.893833
Pb       3.82217      4.01556      8.83972         0.012734     -0.220153     -1.125577
Pb       3.88143     15.59661      8.75942         0.067269      0.160153     -0.256705
Pb      15.54827      3.98768      8.85660        -0.051986     -0.151152     -1.255287
Pb      15.54711     15.58705      8.66742        -0.310309      0.182456      0.225387
Pb       3.95043      3.68445     13.28222         0.067427     -0.013019     -0.197736
Pb       3.84224     15.54504     13.16157         0.642136     -0.190030     -0.376188
Pb       0.01856      3.88316     13.18862         0.031162      0.046851     -0.482415
Pb      15.52472      0.01203     13.19919         0.027390      0.054772     -0.408727
Pb       3.93650      7.76776      4.46183        -0.319812     -0.124482     -0.927612
Pb       3.99734      7.75944     17.62454        -0.316871      0.092184     -0.764135
Pb       0.06404      7.84609      4.35935        -0.182238     -0.427425     -0.322572
Pb       0.08683      7.77863     17.51269         0.062047      0.034215     -0.362067
Pb       3.89803      7.84640      8.82936        -0.298325     -0.052848     -0.559374
Pb      15.49883      7.78981      8.89004        -0.156373      0.459751     -0.971156
Pb       3.92700      7.73255     13.18785        -0.534060      0.346610     -0.733638
Pb       0.10827      7.80358     13.19495        -0.022032     -0.175689     -0.753542
Pb       3.91405     11.65881      4.37099        -0.117668     -0.450735     -0.661441
Pb       3.86647     11.71042     17.61957         0.307209     -0.393306     -0.828085
Pb      15.57026     11.67541      4.30561        -0.058615      0.193073      0.090379
Pb      15.58332     11.70503     17.46464        -0.051436     -0.282899     -0.173724
Pb       3.82365     11.72334      8.86628         0.204283     -0.155416     -0.417500
Pb      15.52326     11.82873      8.78685        -0.166507     -0.720810     -0.798433
Pb       3.84245     11.81607     13.17534        -0.083040     -0.458782     -0.609503
Pb      15.44408     11.75938     13.19324         0.562764     -0.202195     -0.710214
Pb       7.78624      3.65141      4.50844         0.051606      0.018400     -0.754665
Pb       7.75210      3.91446      0.00282         0.221884     -0.225727     -0.677660
Pb       7.62433     15.46259      4.43672        -0.097788      0.379020     -0.439091
Pb       7.68601      0.02411     17.59022         0.189714     -0.080667     -0.727052
Pb       7.57246      3.95081      8.82669         0.263132     -0.196125     -0.034347
Pb       7.76561      0.01169      8.82220        -0.100915      0.041709     -0.930824
Pb       7.95318      3.96090     13.23751        -0.162298     -0.165601     -0.858681
Pb       7.81681      0.10640     13.17917        -0.131977     -0.291265     -0.562995
Pb       7.90162      7.68451      4.41758         0.065849     -0.046227     -0.865390
Pb       7.78120      7.84050      0.03823         0.436593     -0.453572     -0.891706
Pb       7.70327      7.83752      8.79139         0.222230     -0.131856     -0.342579
Pb       7.74487      7.87434     13.16483         0.472503     -0.169817     -0.546916
Pb       7.81234     11.63040      4.41561         0.002598     -0.068713     -0.880057
Pb       7.76884     11.68085     17.58506         0.247063     -0.044840     -0.977670
Pb       7.81744     11.76002      8.81279         0.274694      0.041383     -0.007597
Pb       7.75298     11.82479     13.16237         0.265827     -0.364145     -0.722312
Pb      11.74686      3.82657      4.40047        -0.112617      0.083904     -1.064292
Pb      11.72103      3.81648      0.04551         0.498068     -0.091498     -0.314952
Pb      11.57531     15.41279      4.43170         0.266125      0.355093     -0.681335
Pb      11.51188     15.48385      0.03478         0.329061     -0.064130     -0.876074
Pb      11.58715      3.93284      8.80082         0.583365     -0.043769     -0.507661
Pb      11.80227      0.02289      8.75508        -0.145494      0.500942     -0.793279
Pb      11.80437      3.92806     13.17162        -0.260420      0.299338     -0.274835
Pb      11.67305     15.57939     13.15205        -0.422070     -0.189526     -0.143538
Pb      11.71195      7.69413      4.33242         0.026021     -0.094435     -0.793967
Pb      11.63668      7.69793     17.54918         0.210001      0.372377     -0.281148
Pb      11.59253      7.80992      8.75297         0.567929     -0.195433     -0.426854
Pb      11.70101      7.72973     13.18191         0.429937     -0.170093     -0.591432
Pb      11.69222     11.53198      4.25370        -0.039551      0.253251      0.263602
Pb      11.72562     11.59795     17.49975        -0.310155      0.279265     -0.075693
Pb      11.72922     11.69709      8.76676        -0.337579     -0.242511     -0.439288
Pb      11.60526     11.67801     13.14700        -0.149956      0.061962     -0.438632
Ti       1.92789      1.82465      2.34918         0.621825      1.020082     -0.080066
Ti       1.95098      1.92095     15.60243        -0.022256     -0.172051     -0.062317
Ti       1.89231     13.59832      2.22098        -0.601927      0.009993      0.779404
Ti       2.04615     13.60412     15.56245        -0.814019      0.289718      0.331206
Ti      13.66966      1.84110      2.39373        -0.760226      1.021921     -0.221739
Ti      13.65393      1.95398     15.61382         0.367590      0.353211      0.567384
Ti      13.49662     13.58430      2.30028         1.026552      0.263681      0.189534
Ti      13.66442     13.62525     15.48651        -0.221916      0.497422     -0.408392
Ti       1.79692      1.88529      6.73578         0.908334      1.286173      0.945948
Ti       1.91955     13.63457      6.77231        -0.482896      0.231903      0.921527
Ti      13.62691      1.98294      6.58434        -0.180858     -0.238623      2.254046
Ti      13.56532     13.66876      6.62160         0.549687     -0.603241      0.675339
Ti       2.01805      1.91269     11.11595        -1.148845      0.052089      0.903033
Ti       1.85887     13.68937     11.04167         0.671174     -0.818003      0.307205
Ti      13.61445      1.97595     11.15863         0.749145      0.199546     -1.200156
Ti      13.58228     13.72818     11.08622         0.236616     -0.979834      1.264020
Ti       2.06207      5.79006      2.29333        -1.063247      0.480147      0.810407
Ti       2.06637      5.77517     15.45756        -0.531413      0.489391      1.231149
Ti      13.71816      5.78293      2.21185         0.208321      0.187715      1.149536
Ti      13.65415      5.89964     15.51473         0.706146     -0.601406      0.195533
Ti       1.92122      5.93202      6.72748        -0.632936     -1.102548      0.663890
Ti      13.61781      5.82943      6.66424         0.467331      0.658385      2.387726
Ti       2.04013      5.72396     11.10803        -0.512533      1.459719      2.182123
Ti      13.70064      5.84675     11.10002        -0.170392      0.629009      0.231690
Ti       1.94806      9.73627      2.31519         0.034594     -0.593961      0.014526
Ti       1.99236      9.72289     15.44244        -0.080515     -0.572714      0.046895
Ti      13.63290      9.74433      2.38694         0.628822     -0.873942     -0.204370
Ti      13.65419      9.77984     15.57081        -0.357730     -0.716499      0.692809
Ti       1.95771      9.78149      6.83854        -0.858853     -0.516174      2.097607
Ti      13.54688      9.74306      6.74147         1.868250     -0.001345      0.127148
Ti       1.96594      9.71233     11.16296        -0.248934     -0.342785      1.479179
Ti      13.61660      9.75717     11.20429         0.909677     -1.144306     -0.617609
Ti       5.80420      1.86627      2.27363        -0.240310     -0.145868      2.893187
Ti       5.79639      1.89889     15.63218         0.121303      0.061289     -1.129643
Ti       5.77408     13.49352      2.27016         0.539596      0.319920      0.167573
Ti       5.91768     13.59158     15.58522        -0.450479      0.244591      0.162655
Ti       5.75487      1.93716      6.75550         0.152041     -1.101615      0.327012
Ti       5.77392     13.64822      6.73612         0.673784      0.387821      2.685897
Ti       5.85983      1.98728     11.13152         0.964416     -0.264842     -0.460789
Ti       5.85381     13.61407     11.04222        -0.293642      0.838351      0.518733
Ti       5.94920      5.79177      2.28749        -0.731274      0.244385      0.715494
Ti       5.99499      5.81637     15.47190        -0.717405     -0.222707      3.171035
Ti       5.85024      5.83944      6.63498        -0.833832     -0.243752      2.276429
Ti       5.86900      5.90018     11.18631         0.429936     -1.459137     -0.298275
Ti       5.85827      9.64133      2.33042        -0.600561     -0.055009      0.865380
Ti       5.86903      9.62712     15.47372         0.034680      0.802973      0.639823
Ti       5.86972      9.80892      6.84265        -1.238973      0.336494     -0.052142
Ti       5.86006      9.71113     11.15910         0.009391      0.394733      1.448145
Ti       9.65329      1.81750      2.38847         0.716128      1.245671      0.670432
Ti       9.79798      1.97232     15.62682        -0.045096     -1.016280      0.199202
Ti       9.67779     13.57582      2.25383         0.039084     -0.202955      1.206698
Ti       9.74502     13.65544     15.51930         0.566285     -0.186444     -0.176037
Ti       9.71596      1.95206      6.74505        -0.490112     -0.066341      0.667841
Ti       9.71333     13.65217      6.72738        -0.151366     -0.078460      0.905447
Ti       9.80373      1.97348     11.07628        -0.857494     -0.077781     -0.318331
Ti       9.72538     13.66119     11.01552        -0.585592     -0.540766      0.402061
Ti       9.77649      5.78794      2.25262         0.089761     -0.240546      1.332823
Ti       9.84432      5.72398     15.57759        -0.530192      0.677361     -0.617934
Ti       9.66804      5.81683      6.78058         0.838175     -0.079323      0.012000
Ti       9.75486      5.83195     11.07309        -0.296436     -0.369676      1.123533
Ti       9.71684      9.68391      2.24768        -0.089304     -0.355587      1.088257
Ti       9.74221      9.65333     15.51114         0.462029      0.285916      2.771775
Ti       9.70755      9.72919      6.73909         0.520022      0.308612      1.616053
Ti       9.82139      9.61208     11.15006        -1.374141      1.500142     -0.888663
O       2.00710      1.91417      0.58547        -0.044208     -0.170850      0.546885
O       1.99286      2.05506     13.79219        -0.046532     -0.434601      0.165271
O       1.91650     13.62378      0.46113         0.163471     -0.153945     -0.381381
O       2.09563     13.49507     13.83768         0.146863      0.533922     -1.222532
O      13.65361      2.06535      0.60865         0.028335     -0.628321      0.488272
O      13.74654      2.01179     13.84710        -0.080096     -0.393335     -0.359371
O      13.40406     13.42427      0.53882         0.740157      0.610524      0.156375
O      13.60785     13.66793     13.68698         0.198246     -0.286201      0.028149
O       1.85377      1.84463      4.98485         0.012038     -0.319362     -0.359047
O       1.88213     13.67038      5.03864         0.363693     -0.033827     -0.705409
O      13.62754      1.67730      4.86612         0.302461      0.766492     -0.295894
O      13.62143     13.63576      4.86582        -0.121554      0.330265      0.289788
O       2.01072      1.94151      9.41019        -0.043300     -0.082442     -0.526081
O       1.86308     13.70223      9.26132         0.190993     -0.209893      0.901356
O      13.54669      1.90844      9.38860         0.033411     -0.096923      1.027385
O      13.63990     13.71797      9.36987        -0.153795     -0.009649     -0.985662
O       2.10503      5.89175      0.52386         0.052573     -0.538293     -0.101058
O       1.88631      5.77440     13.74715         0.408513     -0.378703     -0.762826
O      13.64592      5.64906      0.45008        -0.098300      0.142154      0.179635
O      13.67399      5.82198     13.72883        -0.114912     -0.040991      0.888503
O       1.78026      5.95230      4.99056         0.371465     -0.002476     -0.548006
O      13.78589      5.87559      4.96394        -0.376711     -0.108798     -1.137003
O       2.06207      5.80979      9.40137        -0.131210     -0.104802     -1.437981
O      13.69202      5.81897      9.32688         0.164975      0.236037      0.553570
O       1.94835      9.67933      0.56553        -0.000698      0.151192      0.292376
O       1.89890      9.73301     13.66627         0.092682      0.095063      0.824254
O      13.72305      9.83299      0.65364        -0.309254      0.264074      0.193139
O      13.58776      9.76588     13.83385         0.234325      0.272574     -0.436668
O       2.09062      9.74312      5.14781        -0.046859      0.237339     -1.953914
O      13.64131      9.89955      4.96091        -0.397173     -0.473657      0.130128
O       1.92728      9.57398      9.42520         0.237327      0.305845     -0.188201
O      13.64930      9.62335      9.42927        -0.421550      0.211412      0.359695
O       5.93114      1.91723      0.57379        -0.270610      0.268250     -1.259437
O       5.80707      1.96100     13.79918        -0.312807     -0.253671      1.077631
O       5.88228     13.30545      0.52984        -0.103980      0.534585     -0.427032
O       5.90641     13.70996     13.84932        -0.042856     -0.316675     -0.299970
O       5.88658      1.73803      4.97966        -0.242507      0.729903      0.480110
O       5.92231     13.73576      5.02478        -0.233164     -0.451939     -1.623154
O       5.92930      1.97297      9.29651        -0.114665      0.061303      1.617900
O       5.62770     13.76666      9.28997         0.870178     -0.552343      0.728535
O       5.78239      5.88512      0.48858         0.176999     -0.411337      0.690112
O       5.95163      5.75735     13.81431         0.166129      0.087559     -2.858909
O       5.81936      5.78805      4.94113         0.144105      0.255387     -1.245763
O       5.91187      5.72913      9.41076         0.014041      0.508862     -0.250586
O       5.69413      9.54712      0.59231         0.691314      0.236620     -0.503050
O       6.02902      9.75189     13.75060        -0.364308     -0.522877     -0.171234
O       5.74477      9.97068      5.08403         0.224926     -0.525125      0.166453
O       5.78025      9.70700      9.43347         0.189906     -0.323783     -1.191722
O       9.68249      1.96510      0.65240         0.030074     -0.510057     -0.550777
O       9.86020      1.92545     13.88184        -0.032816      0.037606      0.072327
O       9.71707     13.65052      0.53596        -0.051189      0.001686     -0.768055
O       9.65333     13.76495     13.75697         0.537955     -0.172781     -0.119848
O       9.67126      2.07140      4.97285         0.338856     -0.103720     -0.106749
O       9.72480     13.54491      4.95327        -0.329029      0.017290      0.095737
O       9.78425      1.88321      9.29217         0.003274      0.166672      0.536315
O       9.57043     13.64109      9.25011         0.656889      0.417974      0.877038
O       9.80089      5.97559      0.53077        -0.095020     -0.573960     -0.702828
O       9.85678      5.55559     13.79194        -0.090532      0.514738      0.530335
O       9.65633      5.92059      5.01576         0.255925     -0.243573     -0.116289
O       9.67081      5.87009      9.33255        -0.030695      0.123613     -0.456694
O       9.63660      9.54686      0.51086         0.051909      0.224587     -0.117970
O       9.89747      9.76895     13.84575        -0.224534     -0.190789     -2.025947
O       9.80345      9.80275      4.99093        -0.352177      0.022975      0.324047
O       9.79335      9.74059      9.33957         0.171711     -0.518437      1.195139
O       3.87956      1.90308      2.88019         0.496365      0.039023     -0.475104
O       3.85652      1.98944     16.05445         0.451834     -0.532350      0.088260
O       3.89305     13.61587      2.60733         0.040764     -0.212192      0.365829
O       3.97162     13.64782     15.93505        -0.604473     -1.001602      0.598990
O       0.04055      1.91058      2.71540        -0.219020     -0.479959      0.166950
O       0.03435      1.85469     16.18736        -0.543681      0.198261     -0.525301
O      15.58505     13.72152      2.71042         0.323504     -0.299960     -0.282974
O       0.04164     13.58387     15.64753        -0.578250     -0.131753      1.073475
O       3.81962      1.74908      7.19143         0.393959      1.033923     -0.647273
O       3.86928     13.79887      7.09710        -0.411007     -0.502506     -0.139566
O      15.50550      1.91249      7.27877        -0.303232      0.076034     -0.722100
O      15.55246     13.57912      7.06565        -0.423153      0.130135      0.281230
O       3.95306      1.91469     11.60041         0.238645      0.408941     -0.108023
O       4.01049     13.52116     11.51263        -0.711852      0.304607      0.289852
O      15.59776      1.94593     11.49303         0.329113     -0.030882      0.491691
O       0.02330     13.65957     11.45687        -0.111041     -0.145710      0.381277
O       3.85768      5.83376      2.79033         0.937569      0.180437      0.066473
O       3.98564      5.75973     15.76135        -0.691119     -0.093628      0.525478
O      15.59171      5.74259      2.52907         0.492658     -0.093897      0.258449
O       0.03658      5.85420     15.94110        -0.663088     -0.344136      0.131862
O       3.84415      5.72501      7.03847         0.729442      0.042248      0.293036
O       0.00557      5.83214      7.21621        -0.509360      0.314983      0.252903
O       3.97129      6.01676     11.45726        -0.228936     -0.991593      0.385845
O       0.07949      5.90095     11.51777        -0.249399     -0.632782     -0.186284
O       3.85719      9.80481      2.69218         0.155366     -0.346420      0.706993
O       3.90472      9.62851     15.89018        -0.138991      0.441876     -0.105870
O      15.59322      9.70346      2.84944         0.423341      0.595718     -0.144996
O      15.56995      9.70941     16.12752         0.108519      0.393166     -0.858319
O       3.88035      9.78883      7.30997         0.208505     -0.321037      0.092469
O      15.51188      9.76260      7.21638         0.743269     -0.004088     -0.029986
O       3.94172      9.65330     11.62940        -0.012639      0.078398     -0.286992
O      15.54296      9.62595     11.57745         0.748491      0.490548      0.077911
O       7.77638      1.83867      2.86907        -0.302458      0.196417     -0.319053
O       7.72321      1.85737     16.01295         0.737003      0.012189      0.141536
O       7.75104     13.50037      2.72388         0.391456      0.228375      0.043492
O       7.86809     13.74407     15.90837        -1.247111     -0.460457      0.709509
O       7.80481      1.89673      7.00746         0.150161      0.645935      0.456429
O       7.72628     13.57503      7.28225        -0.149582      0.371796     -0.797031
O       7.87487      1.90088     11.67010        -0.646644      0.215520     -0.566340
O       7.80855     13.66312     11.51618        -0.320971      0.050120     -0.197817
O       7.78504      6.03188      2.60167         0.117869     -0.455003      0.072019
O       7.89208      5.77188     16.00416        -0.721557     -0.226922     -0.067368
O       7.76511      5.84994      7.02997        -0.195884     -0.168035      0.471219
O       7.85069      5.95514     11.61800         0.235569     -0.398219      0.002915
O       7.76567      9.64199      2.83083         0.523337      0.584857     -0.401473
O       7.85664      9.57844     15.91185        -0.655325      0.080923      0.342671
O       7.78517      9.84431      7.26133        -0.295924     -0.332932     -0.570689
O       7.88808      9.69646     11.56191        -0.251817     -0.474204      0.133499
O      11.73913      2.02596      2.87028        -0.789699     -0.431628     -0.361351
O      11.74919      1.98659     16.11440        -0.395913     -0.726539     -0.227010
O      11.65262     13.59323      2.62193        -0.562671      0.030520      0.655622
O      11.78003     13.67966     15.81778        -1.195071     -0.133436      0.501399
O      11.76178      1.94380      7.10599        -0.488516     -0.127923     -0.179757
O      11.67375     13.64041      6.96794        -0.202120      0.204895      0.479430
O      11.69455      2.06063     11.50567         0.205796     -0.622539      0.480401
O      11.68991     13.61404     11.37764        -0.185828      0.402729      0.304567
O      11.68355      5.71404      2.70983         0.276387      0.347915      0.201429
O      11.72025      5.76341     15.90018         0.741905      0.081937      0.345482
O      11.66704      5.79121      7.27753         0.156092      0.938944     -0.736130
O      11.72169      5.80065     11.48396        -0.274839      0.067514      0.148465
O      11.70068      9.63140      2.77752         0.215686      0.486627     -0.210147
O      11.67581      9.72620     16.04629        -0.043037     -0.075020     -0.074740
O      11.70776      9.68701      7.25429        -1.527092      0.598501     -0.377292
O      11.66550      9.71111     11.73595         0.240151      0.111447     -0.458053
O       2.04091      3.85629      2.91118        -0.558917      0.061449     -0.592469
O       1.95846      3.78772     15.89109        -0.162231      1.607566      0.514105
O       2.03459     15.51084      2.68759        -0.256815      0.384463      0.166749
O       1.99553     15.56426     15.93344         0.055100     -0.184449      0.257177
O      13.73716      3.83490      2.86539        -0.427317      0.127846     -0.077784
O      13.62708      3.86798     15.91865         0.493174      0.198209      0.117814
O      13.59525     15.52312      2.70939         0.013415      0.331838     -0.298225
O      13.70347     15.50888     15.87706         0.093622      0.892510      0.621204
O       1.78969      3.82607      7.02498         0.606893     -0.057855      0.602110
O       1.77892     15.59346      7.25319         0.374238     -0.559895     -0.571079
O      13.65505      3.93962      7.06648         0.010110     -0.855070     -0.392459
O      13.58716      0.00255      7.14182         0.235943     -0.496690     -0.261648
O       2.06497      3.84428     11.41276        -0.003076      0.303695      0.542433
O       2.06522     15.54688     11.53722        -0.248700     -0.043503      0.117261
O      13.65281      3.92526     11.46144         0.431617     -0.346223      0.480328
O      13.73671     15.56923     11.59371        -0.785494      0.614138      0.026204
O       1.92735      7.76929      2.78649         0.174533      0.310822      0.022149
O       1.86951      7.76784     15.77567         0.388406     -0.106674      0.352437
O      13.71980      7.72575      2.65649        -0.470948      0.095583      0.230135
O      13.58262      7.88233     16.04880         0.251063     -1.473966     -0.446169
O       1.99948      7.76593      7.19390        -0.024614      0.736017      0.119285
O      13.58845      7.84057      7.08968         0.018947     -0.722784      0.080833
O       2.03850      7.74801     11.68074        -0.374931      0.315497     -0.166341
O      13.65974      7.77535     11.64179        -0.499194     -0.455661     -0.112885
O       1.95574     11.74461      2.68061        -0.208891     -0.720883      0.187021
O       1.85069     11.62732     15.81514         0.802144     -0.008273      0.823150
O      13.72928     11.74383      2.88968        -0.668534     -0.771820     -0.710324
O      13.54374     11.68164     16.02467         0.806369      0.002244     -0.392999
O       1.92994     11.69257      7.36618         0.240651      0.395339     -0.585174
O      13.55221     11.69586      7.19379         0.015232      0.575484      0.085893
O       1.99719     11.68945     11.54555        -0.190214      0.121418     -0.356394
O      13.65905     11.62606     11.48328        -0.115448      1.207090      0.373803
O       5.85658      3.93356      2.75957         0.184734     -0.516131     -0.433001
O       5.80976      3.78731     15.94686         0.469923      0.893744      0.563007
O       5.80209     15.56691      2.62724         0.300477     -0.470374     -0.011883
O       5.69605     15.51013     16.15849         0.837120      0.558482     -0.157233
O       5.88421      3.86671      7.24735        -0.514549      0.099408     -0.843816
O       5.86668      0.01836      7.19844         0.179923     -0.301983      0.020102
O       6.02478      3.94740     11.48574        -0.693798     -1.061286      0.320860
O       5.83209     15.58834     11.54608         0.191531      0.114172     -0.182943
O       5.87527      7.77781      2.82349        -0.859985     -0.044493      0.103339
O       5.79940      7.72097     15.95208         0.581939      0.053836     -0.236840
O       5.78009      7.75084      7.19126         0.333191      0.497314     -0.336896
O       5.93671      7.72411     11.63068        -0.017260      1.398712      0.159662
O       5.81300     11.60092      2.65225         0.095881      0.271604      0.716161
O       5.91825     11.57758     15.92430         0.132097      0.403145      0.349590
O       5.69815     11.71093      7.22395         0.278208      0.229516     -0.070473
O       5.91804     11.56357     11.56277         0.096978      1.418758     -0.178383
O       9.59322      3.91378      2.60577         0.003617     -0.185501      0.497043
O       9.78726      3.81598     15.98782        -0.395238      0.133429      0.676641
O       9.79479     15.52782      2.69211        -0.126550     -0.182260      0.104080
O       9.78474     15.55214     16.01059         0.225930      0.931657      0.479850
O       9.90790      3.94584      7.21106        -1.289670     -0.771225     -0.589924
O       9.67708     15.59352      7.05251         0.403862     -0.144916      0.005093
O       9.65284      3.90158     11.49671         0.387614     -0.047837     -0.094441
O       9.77089      0.05182     11.51648         0.428692     -0.591886      0.040562
O       9.79673      7.80352      2.79164        -0.089963     -0.335617      0.223361
O       9.83134      7.63296     15.99384        -0.105056      0.978955     -0.470974
O       9.63868      7.84382      7.14232         0.203295      0.044730     -0.012842
O       9.77165      7.76252     11.56665         0.465190     -0.138186      0.044970
O       9.83258     11.58284      2.59630        -0.583476      0.482152      0.164421
O       9.72240     11.72533     15.89011        -0.092517     -0.424361      0.276934
O       9.68158     11.78067      7.37225         0.572725     -1.045462     -1.072512
O       9.67883     11.70555     11.47379         0.644038      0.378952      0.344202
