  # total energy = -7883.62792189 
CRSYTAL
PRIMVEC
    15.3600000000000000    0.0000000000000000    0.0000000000000000
     0.0000000000000000   15.3600000000000000    0.0000000000000000
     0.0000000000000000    0.0000000000000000    17.440000000000000
PRESSURE
2.77838 2.54178 3.60935 0.235076 0.299359 -0.009631
PRIMCOORD
320 1
Pb       3.83875      3.74529      4.31633        -0.104633      0.218278      0.006366
Pb       3.75925      3.75716     17.40666         0.861997      0.157272      0.305279
Pb       3.77885     15.28207      4.34569        -0.189397      0.067087      0.023171
Pb       3.68651     15.27526     17.29641         0.795417     -0.054867      0.827889
Pb       0.05322      3.72917      4.25863        -0.051424      0.410982      0.978219
Pb       0.05961      3.84638     17.39452        -0.579543     -0.325597      0.129409
Pb       0.03178     15.33309      4.26212         0.090144      0.143468      1.080677
Pb      15.31735     15.27678     17.38358        -0.578337      0.364457     -0.039722
Pb       3.74404      3.79083      8.75728         0.375760      0.517219     -0.569670
Pb       3.85094      0.03521      8.57733        -0.151569     -0.095603      0.234872
Pb      15.33640      3.93979      8.71299        -0.607866     -0.113588     -0.251661
Pb      15.21249      0.00855      8.72344         0.300687      0.316119      0.189900
Pb       3.77819      3.78675     12.98528         0.882981      0.398185      0.244113
Pb       3.75049      0.05576     12.91895         0.286270     -0.521689      0.367676
Pb       0.03895      3.79087     13.05701        -0.181665     -0.445061      0.391534
Pb      15.31603     15.27598     13.04309         0.295879      0.330039      0.275495
Pb       3.81489      7.65264      4.33727         0.257840     -0.367732     -0.119558
Pb       3.80361      7.55052     17.32527        -0.171293      0.427751      0.065979
Pb       0.01870      7.79772      4.29071        -0.079192     -0.350913      0.269422
Pb      15.21824      7.57373     17.38668         0.556776      0.421564      0.550515
Pb       3.77985      7.73590      8.66955         0.234168     -0.301651      0.000329
Pb      15.35629      7.67964      8.66524        -0.317352      0.065636      0.083327
Pb       3.81355      7.58283     12.94333         0.422282     -0.003328      0.387160
Pb      15.31198      7.56903     13.08122         0.205116      0.373529     -0.007627
Pb       3.85908     11.54060      4.31981        -0.298853     -0.029745      0.424854
Pb       3.77885     11.59110     17.35055         0.253649     -0.591661      0.174253
Pb      15.24318     11.51458      4.35799         0.696279     -0.330366     -0.199570
Pb      15.27215     11.55470     17.31360        -0.010084     -0.221521      0.767190
Pb       3.87587     11.49578      8.68108        -0.275369      0.076963     -0.215225
Pb      15.26459     11.49236      8.71842         0.489727     -0.330045      0.219583
Pb       3.82138     11.43324     12.98880         0.189368      0.425514      0.388381
Pb       0.09900     11.52678     13.00221        -0.425101      0.050660      0.430279
Pb       7.69877      3.70705      4.28637        -0.315413      0.381282      0.565849
Pb       7.54927      3.78000      0.02754         0.400858      0.436668      0.193086
Pb       7.72727     15.25081      4.37085        -0.199859      0.539653      0.767797
Pb       7.64829      0.00322     17.40061         0.036226     -0.631509      0.508776
Pb       7.64996      3.87205      8.60217         0.344636      0.219686      0.662282
Pb       7.63285      0.01124      8.68027         0.449675     -0.104106      0.056952
Pb       7.78051      3.92177     12.97945        -0.178750     -0.311991      1.038508
Pb       7.57599      0.11974     12.95364         0.170113     -0.620695      1.079214
Pb       7.75457      7.61485      4.33393        -0.631757     -0.180613     -0.011021
Pb       7.53281      7.74231     17.38201         0.726058     -0.195186      0.210320
Pb       7.72082      7.63827      8.66699         0.115283      0.088097      0.306872
Pb       7.66288      7.71074     12.99207         0.094431     -0.283819      0.330396
Pb       7.67902     11.48824      4.33149         0.144020     -0.249236      0.741038
Pb       7.63882     11.47459     17.40681        -0.332285      0.304086     -0.576432
Pb       7.62927     11.58028      8.62115         0.024027     -0.259907      0.822770
Pb       7.64292     11.47200     12.92896         0.578487      0.442589      0.697918
Pb      11.41754      3.79714      4.22574         0.784998     -0.163628      0.934506
Pb      11.61909      3.81210      0.00934        -0.657998     -0.056548      0.300079
Pb      11.53422     15.21357      4.35810         0.091619      0.644024      0.319960
Pb      11.37436     15.28553      0.08130         0.720185      0.144392     -0.221900
Pb      11.36356      3.87631      8.63084         1.600835     -0.302197      1.217290
Pb      11.48677      0.04376      8.67277        -0.036052      0.003472      0.400925
Pb      11.59577      3.75002     13.08799        -0.592891     -0.360058      0.607837
Pb      11.57614     15.35084     12.96909        -0.838330      0.105072      1.269621
Pb      11.45327      7.63295      4.23866         1.025919      0.172500      0.966786
Pb      11.52204      7.67171     17.41586        -0.626227      0.476151      0.438646
Pb      11.52427      7.70289      8.64716         0.120618      0.244550      0.457127
Pb      11.46922      7.59306     13.10258        -0.142407      0.244656      0.152851
Pb      11.54266     11.49998      4.22011        -0.176812      0.103288      0.430542
Pb      11.39317     11.45429     17.38822         0.229100      0.120319      0.217709
Pb      11.58912     11.50897      8.56282        -0.324593     -0.158478      1.417301
Pb      11.57486     11.48918     13.03038        -0.827521      0.239561      0.535739
Ti       2.00654      1.83805      2.27957        -0.408551     -0.110815      3.530336
Ti       1.92370      1.91407     15.38895        -0.560939     -0.533867      0.403731
Ti       1.86308     13.35185      2.32445         1.049519      0.206889     -0.061023
Ti       1.82879     13.40099     15.39225        -0.000903     -0.141559     -0.799599
Ti      13.53487      1.93065      2.39714        -0.413867     -0.422463      0.053117
Ti      13.45234      1.90973     15.49926        -0.293783     -1.147171     -0.081369
Ti      13.50273     13.50339      2.31494        -1.013002     -0.952588     -0.000341
Ti      13.33074     13.37670     15.45150         0.515564      1.393329      0.171364
Ti       1.88257      1.91057      6.72954        -0.112977      0.429283     -0.073239
Ti       1.85850     13.44999      6.75019         0.209731     -0.580753     -0.196878
Ti      13.41857      1.96082      6.69129         1.236196      0.304426     -0.978385
Ti      13.42867     13.48722      6.74158         0.104728      0.335389      0.827376
Ti       1.93760      1.97878     10.98513        -0.421617     -1.338692      0.672065
Ti       1.90287     13.43006     10.95861         0.274716      0.364592      1.533077
Ti      13.44757      1.91206     11.09588         0.227354     -0.605578     -1.489613
Ti      13.42294     13.41629     11.16346        -0.182969     -0.361233     -0.215055
Ti       1.87915      5.73714      2.33933         0.413472     -0.175844      1.650166
Ti       1.86187      5.74301     15.38849         0.778103      0.360595      0.057259
Ti      13.40675      5.73969      2.42244         0.506835      0.284919      0.796799
Ti      13.32729      5.72036     15.41862         0.940372     -0.254770     -0.259958
Ti       1.92566      5.79031      6.73191        -0.726027     -0.094628      1.017466
Ti      13.36987      5.77225      6.61476         1.802719     -0.078096      0.048260
Ti       1.86882      5.74179     11.02117         0.520801      0.191696      0.569805
Ti      13.47213      5.65918     11.19998        -0.147871      0.700019     -1.809026
Ti       1.97265      9.63347      2.25394        -0.479894     -0.560283      0.500911
Ti       1.78460      9.57790     15.43138         1.098035     -0.245825      1.505917
Ti      13.41487      9.61539      2.29455         1.017048     -0.114877      1.155569
Ti      13.40819      9.56863     15.36048        -0.523436      0.288198      1.068986
Ti       1.97838      9.64292      6.66320        -1.440268      0.331235      1.616832
Ti      13.46964      9.63765      6.67354         0.417448     -1.111240      0.327809
Ti       1.90390      9.58506     11.07954         0.011959     -0.223596     -1.089179
Ti      13.46480      9.52158     11.18083         0.013276      0.478826     -0.457403
Ti       5.85306      1.79176      2.47919        -0.576728      0.992173      0.000872
Ti       5.79904      1.84162     15.48895        -0.048221      0.431425     -1.021753
Ti       5.74960     13.40969      2.44005        -0.332870     -0.097992     -0.034991
Ti       5.73441     13.39333     15.33203         0.714257     -0.110745     -0.350864
Ti       5.77685      2.01605      6.72697         0.216406     -0.547407     -0.977401
Ti       5.71143     13.47728      6.70951         0.258056     -0.347776      0.487741
Ti       5.77259      1.96342     10.95877         0.424052      0.507527      0.923725
Ti       5.75775     13.45784     11.02671         0.583792     -0.190348      0.500340
Ti       5.68496      5.67426      2.33811         0.170486      0.018659      1.139565
Ti       5.73450      5.68617     15.38150         0.116392      0.175480      0.264088
Ti       5.70708      5.78115      6.66319         0.436062     -0.872314      0.980448
Ti       5.78237      5.73795     11.02364         0.423079      0.294100      0.212559
Ti       5.75862      9.54456      2.38491         0.006352     -0.364105      0.961551
Ti       5.63214      9.52275     15.31007         0.300301      1.216287      0.884849
Ti       5.80820      9.55162      6.69529         0.270333      0.329705      0.246579
Ti       5.77152      9.63205     11.02245         0.358000     -0.813168      0.330129
Ti       9.69866      1.87411      2.40170        -0.596178     -0.723380     -0.101225
Ti       9.63507      1.92655     15.54626         0.605063      0.866706     -0.617527
Ti       9.54105     13.38582      2.43186         0.462156      0.667040     -0.192593
Ti       9.63516     13.45894     15.34151        -0.954027      0.058114     -1.364259
Ti       9.63876      1.89434      6.69531        -0.124193     -0.074282     -0.988155
Ti       9.55584     13.41470      6.72163         0.620057      0.385487     -0.090611
Ti       9.57095      1.90626     11.10917         0.835081     -0.091108     -0.121252
Ti       9.60984     13.49123     11.07191        -0.905349     -0.421126      1.463618
Ti       9.54896      5.74888      2.32280        -0.248343     -0.554539     -1.882562
Ti       9.53749      5.76984     15.58173        -0.203211      0.283012      0.524342
Ti       9.63069      5.75077      6.72120        -0.854099      0.452710      1.198863
Ti       9.74313      5.75716     11.07436        -1.258668     -0.109598      0.377769
Ti       9.61284      9.50935      2.34145        -0.192036      1.126193     -1.274061
Ti       9.53486      9.62936     15.42911        -0.306130     -0.684481      0.459880
Ti       9.58682      9.66851      6.73088         0.337484     -1.138028      1.106605
Ti       9.65691      9.61917     11.11176        -0.141735      0.144244     -1.215220
O       1.96936      1.93793      0.62685        -0.360412     -0.128224     -3.695807
O       1.83552      1.91063     13.64012         0.564328     -0.000156      0.273482
O       1.92333     13.37712      0.57596        -0.052347      0.160289     -0.808732
O       1.79977     13.41311     13.61173         0.298022     -0.007257      0.546895
O      13.64573      1.85895      0.63475        -0.385990      0.359482      0.401866
O      13.45596      1.94445     13.75687         0.048331     -0.003595     -1.332974
O      13.40128     13.56154      0.57727         0.225921     -0.245977     -0.263158
O      13.40895     13.41959     13.71281        -0.105246      0.086944     -0.870573
O       1.92240      1.92293      4.96328        -0.031397      0.045357      0.311052
O       1.87274     13.46774      4.99276        -0.086151     -0.272819     -0.121057
O      13.50274      1.93099      4.90218        -0.077674      0.054259      0.702960
O      13.39904     13.51111      5.03444         0.112703     -0.445657     -1.271206
O       2.00048      1.94788      9.26727         0.123128      0.011731     -1.132360
O       1.95715     13.38010      9.25417         0.123784      0.224376     -0.970301
O      13.43971      1.88963      9.30955         0.071693     -0.130776      0.735466
O      13.47580     13.35568      9.43129        -0.146465      0.207442     -0.880557
O       1.92886      5.79767      0.61800        -0.068377     -0.242972     -1.313614
O       1.94534      5.81451     13.67162        -0.120202     -0.577783     -1.214251
O      13.52909      5.68278      0.69356        -0.020785      0.291479     -1.494396
O      13.37610      5.67201     13.64714         0.081579      0.428144      0.295806
O       2.00532      5.72074      5.04263        -0.203072      0.007229     -1.844080
O      13.33326      5.81054      4.85715         0.045927      0.003434      0.312444
O       1.79260      5.84680      9.29446         0.430836     -0.377784     -0.294433
O      13.49729      5.71366      9.43436        -0.156385     -0.254687      0.516765
O       1.94798      9.54248      0.51660        -0.086799      0.033865     -0.419967
O       1.78720      9.66313     13.73981         0.121086     -0.116783     -2.137783
O      13.49762      9.56375      0.59595        -0.121054      0.092107     -1.338301
O      13.43193      9.49268     13.61614        -0.043662      0.024689     -0.161030
O       1.71665      9.73729      4.98422         0.463442     -0.456514     -1.451865
O      13.47965      9.56132      4.91485         0.067805      0.351753      0.132205
O       1.92500      9.68290      9.32707         0.376178     -0.469698      0.014197
O      13.51619      9.76340      9.45438        -0.325739     -0.249738     -0.722614
O       5.93381      1.91154      0.76011        -0.107551     -0.325384     -1.418339
O       5.78972      1.83253     13.74364        -0.235601      0.113943     -0.196291
O       5.80050     13.35214      0.71629        -0.132104     -0.121213     -0.826748
O       5.67265     13.47280     13.57319         0.084106     -0.141361      0.429043
O       5.77509      1.95290      4.95020        -0.101518      0.208342      0.116544
O       5.69798     13.46834      4.99092         0.022905     -0.006792     -1.072368
O       5.83992      2.03652      9.23619        -0.153930     -0.302676     -1.170913
O       5.80926     13.39541      9.25271        -0.332416      0.156336      0.282534
O       5.64039      5.58208      0.62764        -0.183883      0.251483     -1.614548
O       5.70672      5.82839     13.64113         0.158833     -0.343491      0.018144
O       5.75761      5.76554      4.94250         0.059072     -0.025051     -1.046961
O       5.81694      5.81742      9.27980         0.010892     -0.384718      0.255341
O       5.77155      9.62569      0.67457        -0.068398      0.250657     -0.716590
O       5.69800      9.59434     13.57763         0.034552     -0.152879     -0.389131
O       5.92938      9.50478      4.96520        -0.269995     -0.172762     -0.431502
O       5.76613      9.60471      9.27380        -0.199595      0.152257     -0.476981
O       9.75098      1.77720      0.65092        -0.384679      0.259303     -0.192755
O       9.70512      2.05168     13.78631        -0.326972     -0.316532      0.256826
O       9.62234     13.49442      0.70064        -0.104091     -0.210184     -0.756925
O       9.69452     13.47274     13.55749        -0.212625     -0.124127      1.342745
O       9.62736      2.01576      4.92570         0.207673     -0.258010      0.282485
O       9.61257     13.42018      4.95662        -0.057513     -0.109978     -0.092643
O       9.74299      1.82232      9.36954        -0.592039      0.137758     -0.682999
O       9.50955     13.69073      9.37868         0.126033     -0.195216     -1.739742
O       9.63857      5.81413      0.54642         0.024914     -0.002813      1.267616
O       9.59109      5.71922     13.85380         0.230752      0.120578     -1.346602
O       9.48744      5.73808      5.02970         0.457427      0.001856     -2.124297
O       9.69421      5.76371      9.32996         0.112384      0.114750     -0.262599
O       9.60746      9.55003      0.55573        -0.130038      0.269275      0.826924
O       9.56260      9.51996     13.70424         0.182007      0.208313     -1.132680
O       9.64577      9.75683      5.02388        -0.134854     -0.528149     -1.416376
O       9.66675      9.39139      9.35298         0.011057      0.572742      0.500833
O       3.81991      1.86539      2.66863         0.549189     -0.095924      0.585162
O       3.88102      1.86137     15.92527        -0.821348     -0.325440     -0.434364
O       3.78583     13.35686      2.81094         0.389545     -0.050810      0.070489
O       3.81921     13.42867     15.84398        -0.276854      0.064131     -0.393344
O       0.03951      1.87458      2.83445        -0.028969     -0.092592     -0.502893
O      15.31178      1.94282     15.86879         2.303731      0.141417      0.095915
O       0.01566     13.40789      2.67412        -1.016313     -0.261236      0.356338
O      15.23531     13.49377     15.79997         0.991851     -0.470999      0.243228
O       3.89584      2.05326      7.05904        -0.850018     -0.233455      0.480579
O       3.86234     13.38818      7.09763        -0.436921      0.059760      0.357851
O       0.05035      1.84075      7.21125        -0.314269      0.360514     -0.330130
O      15.32163     13.47729      7.23228         0.041131     -0.043854     -0.373583
O       3.88986      1.86261     11.36269        -0.496561      0.532475      0.313595
O       3.86217     13.36405     11.49733        -0.508794      0.402847     -0.610645
O       0.08141      1.96999     11.37916        -0.938587     -0.367983      0.370481
O       0.02261     13.46573     11.46564        -0.047991     -0.049742     -0.083965
O       3.79869      5.73539      2.86564        -0.271601     -0.625781     -0.309997
O       3.79913      5.67240     15.73746         0.691988      0.400144      0.608364
O      15.29539      5.64720      2.84573         1.277686      0.908268     -0.513285
O      15.34101      5.78844     15.72226        -0.428149     -0.519986      0.508631
O       3.84104      5.72742      7.04559         0.003937      0.071853      0.726601
O      15.34654      5.82764      7.07970        -0.618303     -0.211487      0.114608
O       3.90894      5.75257     11.42143        -1.179022     -0.299857     -0.015111
O      15.34915      5.73587     11.57138         0.693363     -0.395883      0.045831
O       3.86268      9.68144      2.79843        -0.148374     -0.185733     -0.076429
O       3.74096      9.67323     15.73749         0.369745     -0.447856      0.180494
O       0.05370      9.59605      2.78911        -0.451496     -0.079013     -0.400498
O      15.27493      9.66090     15.80559        -0.086143     -0.462671      0.145955
O       3.87762      9.60673      7.06882         0.143670     -0.041312      0.010142
O       0.02445      9.60355      7.18608        -0.636494      0.365102     -0.335990
O       3.87929      9.63591     11.44888        -1.016739     -0.256046     -0.055371
O       0.02172      9.55716     11.42879         0.199604     -0.206083      0.753262
O       7.74755      1.83600      2.90868        -0.584322      0.148899     -0.383638
O       7.71662      1.87978     15.99529         0.194630      0.342619     -0.401385
O       7.64550     13.45922      2.86523        -0.345286     -0.079655     -0.101561
O       7.66997     13.38527     15.74624         0.120770      0.046630      0.124230
O       7.77767      1.93314      6.95255        -1.042025      0.203451      0.812459
O       7.71990     13.53108      7.18501        -0.927067     -0.423965     -0.360802
O       7.69906      2.05099     11.53692        -0.439244     -0.310279     -0.523796
O       7.65141     13.32904     11.46384        -0.589728      0.633630     -0.071611
O       7.63539      5.83472      2.64585         0.687222     -0.111736      0.368917
O       7.67599      5.80552     15.96973        -1.436242     -0.640652     -0.352051
O       7.73718      5.70867      7.11495        -0.306979      0.226694      0.158707
O       7.78304      5.68309     11.54986        -0.504187      0.557674     -0.765818
O       7.76824      9.45807      2.78398        -0.918765      0.047641     -0.006965
O       7.59987      9.63146     15.79701        -0.148609      0.225001      0.161893
O       7.72878      9.63152      7.19518        -0.771354     -0.751448     -0.205512
O       7.70477      9.55609     11.41843        -0.081367      0.432147      0.222363
O      11.58598      1.81721      2.80182        -0.517170      0.174057     -0.228804
O      11.61611      1.98497     15.96474        -1.610063     -0.082620      0.134326
O      11.51254     13.50968      2.80807        -0.213414     -0.640586     -0.251678
O      11.50474     13.37433     15.86198        -0.718734      0.370492      0.199949
O      11.60653      1.98068      7.06464        -1.526005     -0.492682      0.234976
O      11.55564     13.42266      7.19275        -0.808071      0.169307     -0.313803
O      11.53637      1.79381     11.40452         0.063920      0.530551      0.515920
O      11.45380     13.51414     11.42857         1.366580      0.033048      0.142575
O      11.52496      5.67152      2.81838        -0.996457      0.363906     -0.422220
O      11.53174      5.87784     15.92724         0.200057     -0.375777     -0.322745
O      11.55034      5.77961      7.10876        -0.055260     -0.040259      0.014187
O      11.58766      5.71169     11.62013        -0.811590      0.177474     -0.333593
O      11.54421      9.60713      2.73134        -1.090567      0.390125      0.083002
O      11.43887      9.56407     15.87927         1.037103     -0.042301     -0.314485
O      11.50751      9.61265      7.12991         0.656199      0.098182     -0.095590
O      11.58349      9.67966     11.47130        -0.870931     -0.854731      0.405175
O       1.94728      3.74682      2.73551        -0.252517      0.929602     -0.174361
O       2.06038      3.76815     15.82227        -1.227504      0.133682     -0.233119
O       1.84525     15.23040      2.74064         0.592323      1.183924     -0.137993
O       1.85352     15.26248     15.79874         0.262145      1.544367      0.048204
O      13.43541      3.81533      2.77037        -0.119114     -0.633905     -0.120716
O      13.41646      3.84604     15.84469         0.216714      1.285571      0.335484
O      13.45352     15.28400      2.90303         0.191232      0.859998     -0.632664
O      13.38580      0.02711     15.83308         0.128423     -0.745612      0.207721
O       1.82487      3.91715      7.28887         0.639085     -1.111265     -0.600633
O       1.97104     15.33813      7.05492         0.351504      0.753871      0.513950
O      13.49204      3.84955      7.11859         0.008557      0.509898     -0.224969
O      13.44048      0.05249      7.09278        -0.041410     -0.657315      0.406121
O       1.90828      3.83794     11.48979         0.514318      0.372313     -0.147040
O       1.94007      0.05004     11.41432        -0.017777     -0.907613     -0.140151
O      13.49250      3.73570     11.59923        -0.222753      0.515828     -0.178628
O      13.43118     15.34038     11.58798         0.727347      0.146558     -0.477097
O       2.05241      7.64529      2.78666        -0.913344      0.318418     -0.264324
O       1.92662      7.62905     15.68117        -0.197334      0.478697      0.733128
O      13.34236      7.73913      2.71040         0.453416     -1.048021      0.144813
O      13.47407      7.71506     15.95289        -0.434699     -0.651269     -0.945783
O       1.87433      7.72485      7.12099         0.721171      0.153031     -0.012830
O      13.52561      7.72428      7.18269        -0.917400     -0.112027     -0.528041
O       1.94884      7.56200     11.44790        -0.194412      1.415327      0.219637
O      13.46261      7.59994     11.44212        -0.167469      0.561155      0.614617
O       1.89191     11.47770      2.69402        -0.004722      0.013354      0.266996
O       1.75743     11.56513     15.84065         0.516259     -0.424669     -0.056687
O      13.40559     11.51630      2.71921         0.185838      0.641746      0.140829
O      13.36946     11.48721     15.88370        -0.042374     -0.421978     -0.339292
O       1.85898     11.53665      7.06047         0.483484      0.027022      0.458381
O      13.42464     11.51409      7.11253         0.312492      0.193775     -0.203281
O       1.80601     11.47105     11.37486         0.690174      0.729001      0.362803
O      13.39059     11.55740     11.67758         0.778112     -0.129459     -0.652838
O       5.78119      3.75518      2.74808        -0.060144      0.431142      0.501131
O       5.77570      3.78670     15.77248         0.083120      0.421683      0.399354
O       5.60072     15.31958      2.79211         0.782855     -0.664517      0.293112
O       5.87214     15.33410     15.81398        -0.721322     -0.798305      0.346339
O       5.82227      3.87797      7.25928        -0.346232     -0.313242     -0.818595
O       5.69184      0.02218      7.05778         0.335436      0.526335      0.395420
O       5.68330      3.81637     11.47480         0.361455      0.367628     -0.037596
O       5.84468      0.09139     11.34580        -0.251195     -1.361161     -0.060544
O       5.59981      7.59409      2.63671         0.440441      1.183136      0.479477
O       5.77659      7.65919     15.83698        -0.829971     -0.094247     -0.216257
O       5.76007      7.57903      7.09612         0.210685      1.905121      0.214418
O       5.76377      7.68966     11.38721         0.118781     -0.258742      0.242563
O       5.83605     11.50281      2.98379        -0.353403     -0.452482     -0.952760
O       5.66876     11.47002     15.81644         0.291278      0.524867     -0.141890
O       5.84552     11.49184      7.03337        -0.213919      0.226408      0.239309
O       5.79532     11.49734     11.53731        -0.524170      0.390094     -0.654443
O       9.52721      3.80732      2.64558         0.356130      0.191361      0.304441
O       9.63526      3.89765     15.99623         0.051418     -1.049316      0.107774
O       9.40436     15.34484      2.82647         1.543596     -0.181371     -0.118847
O       9.67137      0.01533     15.87205        -0.160618     -0.428999     -0.130483
O       9.69256      3.82283      7.18155        -0.638185     -0.165469     -0.629919
O       9.55414     15.31585      7.10583         0.866132      0.920973     -0.078382
O       9.69422      3.82432     11.51035         0.148606      0.312135     -0.150760
O       9.45910      0.02510     11.59519         0.418227      0.475750     -0.415977
O       9.70862      7.63439      2.73307        -0.373260      0.029301      0.149789
O       9.44660      7.72341     15.88807         0.753853      0.083417      0.073540
O       9.64775      7.66545      7.13858        -0.170560      0.127371     -0.269304
O       9.57032      7.68896     11.57296         0.923179     -0.753201     -0.116236
O       9.40905     11.50939      2.72818         1.141936     -0.670815     -0.057679
O       9.63759     11.57874     15.81452        -0.306113     -0.584017      0.198705
O       9.52030     11.52963      7.17481         0.544189      0.557156      0.038576
O       9.66435     11.56458     11.40932        -0.295150     -0.931802      0.101288
