  # total energy = -7879.97814896 
CRSYTAL
PRIMVEC
    15.2000000000000000    0.0000000000000000    0.0000000000000000
     0.0000000000000000   15.2000000000000000    0.0000000000000000
     0.0000000000000000    0.0000000000000000    17.000000000000000
PRESSURE
7.81167 7.57464 2.45135 -0.092 0.261061 0.034925
PRIMCOORD
320 1
Pb       3.65628      3.86832      4.26034         0.298918      0.201222      0.422680
Pb       3.91467      3.89267      0.08107        -0.427170      0.017947     -0.779607
Pb       3.60880      0.17720      4.36405         0.724822     -0.636945      0.141457
Pb       3.91783     15.19533      0.00499        -0.309241     -0.587781     -0.073611
Pb      15.12879      3.91001      4.15687        -0.079002      0.396529      0.639663
Pb       0.08589      3.70864     16.95661         0.108902      0.446570     -0.442573
Pb      15.17628      0.24927      4.38815        -0.220396     -0.530458     -0.281881
Pb       0.06307     15.13606     16.86544        -0.435921     -0.009784      0.817467
Pb       3.91839      3.77761      8.44452         0.008095     -0.238544      0.008315
Pb       3.79716     14.99325      8.67435         0.117109      0.463142     -0.824109
Pb       0.02040      3.74162      8.60789        -0.045790     -0.097051     -0.400732
Pb      15.02179     15.07519      8.66026         0.136009      0.299446     -0.722194
Pb       3.81966      3.82209     12.65936        -0.036600     -0.168623      0.153416
Pb       3.83507     15.15559     12.73782        -0.042239     -0.012652      0.017072
Pb       0.01204      3.67172     12.71361         0.209032      0.207759      0.693457
Pb       0.08353     15.16672     12.81112        -0.513159      0.110520     -0.143587
Pb       3.63505      7.75843      4.31894         0.080477     -0.775141     -0.204081
Pb       3.92911      7.63673      0.03186        -0.517094     -0.287338      0.361885
Pb      15.10923      7.84238      4.22473         0.075019     -0.849336      0.381792
Pb       0.09061      7.62933     16.84830        -0.059579     -0.500021      0.484036
Pb       3.76171      7.59558      8.38579         0.272961     -0.361062     -0.058449
Pb      15.06512      7.48381      8.51346         0.083563      0.376648     -0.012694
Pb       3.82818      7.47285     12.56955        -0.083070      0.344351      0.838004
Pb      15.12780      7.36813     12.64973         0.601300      0.611348      0.925626
Pb       3.52546     11.50385      4.31750         0.366440     -0.148761      0.266685
Pb       4.01670     11.40502      0.28527        -0.521509      0.185994     -0.958907
Pb      15.07811     11.54631      4.20120        -0.222069     -0.793411      0.171200
Pb       0.12863     11.42106     16.93170        -0.057128     -0.153714      0.555920
Pb       3.73734     11.38349      8.52313        -0.187762      0.017955     -0.267972
Pb      14.99577     11.40331      8.53701         0.415437     -0.320769      0.295949
Pb       3.74566     11.29030     12.73130        -0.257259     -0.238641     -0.232197
Pb      15.19540     11.12910     12.81298         0.379717      0.606371     -0.345640
Pb       7.56582      3.76562      4.13098         0.427151      0.031985      1.019873
Pb       7.54991      3.77173      0.01600         0.164922      0.149584     -0.120989
Pb       7.59749     15.19850      4.21360        -0.257288      0.199699     -0.168972
Pb       7.63261     15.14019      0.01856        -0.297076     -0.060299      0.047796
Pb       7.68674      3.83755      8.30121         0.048443      0.008277      0.729284
Pb       7.59796     15.08895      8.33183         0.140536      0.432168      1.005692
Pb       7.51405      3.82808     12.74747         0.658706      0.383902     -0.150753
Pb       7.57752      0.01566     12.76022         0.658787     -0.500147     -0.072987
Pb       7.70143      7.66891      4.30293        -0.624417     -0.089077     -0.735579
Pb       7.45077      7.71143      0.02574         0.906245     -0.350304     -0.085710
Pb       7.56105      7.61351      8.35564         0.090978     -0.089316      0.616223
Pb       7.48420      7.49444     12.66181         0.511079      0.048646      0.507141
Pb       7.52672     11.38514      4.23046         0.055028     -0.224193     -0.065699
Pb       7.66415     11.41871      0.02205        -0.247586     -0.193562     -0.299251
Pb       7.51321     11.53061      8.44804        -0.002769     -0.874587      0.401305
Pb       7.43721     11.24589     12.68336         0.781108     -0.012026      0.078969
Pb      11.43779      3.69993      4.10748        -0.014337      0.638770      0.499796
Pb      11.42462      3.67664      0.00062        -0.196719      0.191878     -0.191424
Pb      11.47317      0.01610      4.15401        -0.248138     -0.327898      0.007591
Pb      11.49645     15.10190     16.90928        -0.517613      0.377655     -0.142118
Pb      11.38327      3.80641      8.44487        -0.352859      0.033195      0.144412
Pb      11.25264     15.18565      8.39692         0.286143      0.033965      0.496427
Pb      11.37994      3.77366     12.80775        -0.403756     -0.363300      0.007540
Pb      11.40314     15.09218     12.77752         0.006472      0.638135      0.063228
Pb      11.42871      7.78957      4.10250         0.416486     -1.010712      0.390665
Pb      11.31806      7.52695     16.91545        -0.057826     -0.294602      0.561428
Pb      11.26910      7.49256      8.49125         0.033107      0.241275      0.623106
Pb      11.30451      7.43241     12.79546        -0.287825     -0.035547      0.242144
Pb      11.41614     11.36394      4.12240         0.221552      0.136157      0.211494
Pb      11.38865     11.47692     16.93742        -0.002828     -0.204367      0.069266
Pb      11.27350     11.49475      8.49833         0.130279     -0.525676      0.290375
Pb      11.38433     11.34858     12.74739        -0.275678     -0.177156      0.056432
Ti       1.89013      1.94091      2.14846         0.412152     -0.279044     -0.294245
Ti       2.05385      1.79288     15.00957        -0.472381      1.290373     -0.008918
Ti       1.74785     13.36635      2.32941         0.879220     -0.103667     -0.978278
Ti       1.92347     13.20049     14.93944         1.442315      0.798446      0.822296
Ti      13.36467      1.84366      2.17648        -0.585924     -0.163324     -0.625098
Ti      13.38835      1.85317     15.05242        -0.803174      0.345995     -0.594009
Ti      13.20402     13.26005      2.10623         0.437312     -0.230533     -0.094248
Ti      13.37905     13.19501     14.89670        -1.298855      0.996505     -0.249943
Ti       1.88500      1.83802      6.68040        -0.083922     -0.062293      1.097529
Ti       1.79448     13.29747      6.58110         0.415204     -0.367819      0.158829
Ti      13.27604      1.91388      6.56018         0.192460     -0.080577     -0.430918
Ti      13.19290     13.25535      6.47559         0.592566      0.491878     -0.285518
Ti       1.95267      1.81978     10.77737        -0.004626      0.563822     -0.737763
Ti       1.84451     13.29340     10.74707         0.208051     -2.120077      0.308040
Ti      13.25493      1.87287     10.73889        -0.225065     -0.660896      0.594068
Ti      13.28746     13.27820     10.84970         0.340441     -0.409928     -0.295583
Ti       1.87078      5.70251      2.20837        -0.399836      1.791502     -0.427432
Ti       1.89931      5.67164     14.95471         0.663627     -0.933980     -0.152741
Ti      13.30081      5.65977      2.14353        -0.684061      0.567237     -0.061702
Ti      13.35665      5.67875     15.03928        -0.774113     -0.750155     -0.167832
Ti       1.83501      5.61781      6.47908         0.369644      0.794885     -0.425570
Ti      13.27486      5.70981      6.52781        -0.429509     -0.319123     -1.718000
Ti       1.89673      5.67573     10.72685         0.075097     -0.807699     -0.480106
Ti      13.26988      5.60794     10.78055        -0.210360      0.513364     -0.211823
Ti       1.86880      9.51701      2.26660        -0.121075     -0.134340     -0.119686
Ti       1.91666      9.48135     14.99659         1.363568     -0.133470     -1.571737
Ti      13.32653      9.43079      2.02757         0.222483      1.578552      0.614991
Ti      13.31520      9.45512     14.94083         0.291154     -0.261995      1.549516
Ti       1.79164      9.46657      6.62998        -0.649349      0.632660     -0.577742
Ti      13.15000      9.45809      6.59408         1.142485      0.534485     -0.923882
Ti       1.81328      9.42874     10.65264         0.976611      1.217266      0.541353
Ti      13.22401      9.42232     10.79674         0.512271      0.352998     -1.191581
Ti       5.60685      1.87721      2.30654         0.695317     -0.739845     -0.011389
Ti       5.74801      1.85743     14.91311         0.155736      0.126476     -0.109671
Ti       5.53453     13.32598      2.34967         0.925820      0.071843      1.334022
Ti       5.67468     13.24024     14.96008        -0.206410     -0.205333      0.820164
Ti       5.71634      1.80151      6.50055        -0.355465      0.370572     -0.045331
Ti       5.63360     13.24099      6.36788        -0.682061     -0.231251      0.229786
Ti       5.78065      1.84221     10.74427        -0.464737      0.465399     -0.929443
Ti       5.68061     13.22592     10.81925         1.291871      0.079958     -0.826074
Ti       5.67079      5.67599      2.38477         0.047732      1.739688     -0.604855
Ti       5.68615      5.69320     14.99048        -0.055505     -0.259567     -1.352510
Ti       5.70511      5.66135      6.39136        -0.186637     -0.180581      0.464044
Ti       5.70387      5.61518     10.54589         0.640543      1.181825     -0.561560
Ti       5.66529      9.50719      2.37577         0.124392     -0.259944      0.588311
Ti       5.69511      9.48658     15.01848         0.306052      0.669989     -0.219397
Ti       5.59934      9.46154      6.38912         0.987093      0.348084      0.201326
Ti       5.58489      9.39637     10.64966         1.532081      0.021822     -1.098905
Ti       9.46937      1.82589      2.20800         0.075843     -0.033990      0.472302
Ti       9.44310      1.84488     14.95651         0.910315      0.455432      0.304379
Ti       9.39617     13.21687      2.24676         0.591839      0.648975     -0.690091
Ti       9.45370     13.25035     14.91713         0.000519      0.354034     -0.725991
Ti       9.50031      1.91826      6.38288         0.675823      0.106002     -0.675272
Ti       9.43445     13.27932      6.36295         1.277173      0.005366      0.323841
Ti       9.48636      1.82338     10.77693         0.325005      0.439556     -0.080307
Ti       9.55726     13.23917     10.75935        -1.829736      0.131360     -0.462973
Ti       9.50005      5.60592      2.24533         0.519428      1.537895     -0.655088
Ti       9.45306      5.61307     15.12495        -0.005693      0.975948     -1.359836
Ti       9.53646      5.74041      6.22503         0.150274     -0.778000      2.157503
Ti       9.49733      5.62629     10.72039        -0.865871     -0.812706     -0.577150
Ti       9.53322      9.46995      2.20025        -0.193452     -0.324648     -1.316285
Ti       9.60293      9.46718     15.05346        -2.294664     -0.748293     -0.819054
Ti       9.44179      9.50680      6.55450        -0.261233      0.248694     -0.235640
Ti       9.50516      9.42895     10.83588        -0.791264     -0.715542     -1.552142
O       2.08477      1.94158      0.36485        -0.610781     -0.300454      1.093470
O       2.03881      1.84124     13.21865        -0.243902     -0.385675     -0.081356
O       1.85539     13.38528      0.55288        -0.038730     -0.282491      0.341051
O       1.90432     13.32418     13.18157         0.138770     -0.499563     -0.074338
O      13.35330      1.72558      0.38056        -0.025530      0.741368      0.662508
O      13.31563      1.83141     13.28329         0.205302      0.062256     -0.022416
O      13.13532     13.25721      0.27771         0.504365     -0.130629      0.760164
O      13.34131     13.13402     13.08737        -0.249250      0.722181      0.566659
O       1.90712      1.88156      4.90510        -0.346556      0.056436     -0.681676
O       1.83345     13.22890      4.78329        -0.240832      0.659466     -0.577126
O      13.30884      1.90948      4.71175         0.121862     -0.180657      0.374901
O      13.15362     13.37985      4.69581         0.454168     -0.460875      0.026277
O       1.83812      1.77023      8.96595         0.310196      0.269468      0.952654
O       1.90031     13.19530      8.97351         0.015596      0.606050     -0.172867
O      13.24124      1.82472      8.96620         0.227997      0.036731      0.144894
O      13.24619     13.33509      9.04294         0.086030     -0.438326     -0.095878
O       1.87310      5.70441      0.40112         0.025257      0.016471      0.441927
O       1.76522      5.57729     13.15820         0.817332      0.109979      0.085330
O      13.21743      5.65531      0.37096         0.449674     -0.023858     -0.150688
O      13.34523      5.71718     13.23849         0.063217     -0.300540     -0.243547
O       1.87425      5.72128      4.66585        -0.072227     -0.448630      0.783210
O      13.27706      5.74645      4.71331        -0.008950     -0.310199      0.614080
O       1.76743      5.61460      8.95584         0.283012      0.253284      0.109818
O      13.25476      5.66217      9.00031         0.262840     -0.119861      0.334941
O       1.92642      9.42427      0.49267        -0.524312      0.374015     -0.572579
O       1.90541      9.62030     13.15143         0.380435     -0.194482      1.342039
O      13.46514      9.62068      0.28304        -0.178698     -0.418749     -0.347046
O      13.37633      9.37183     13.22322        -0.158443      0.273096     -1.539202
O       1.76829      9.45377      4.78400         0.203039      0.124752      0.645052
O      13.35017      9.55296      4.74688        -0.666625     -0.387722      1.113667
O       2.00308      9.48992      8.87340        -0.386614     -0.373893     -0.186810
O      13.30264      9.51618      9.01074        -0.244391     -0.324536     -0.035966
O       5.56838      1.78187      0.51322         0.330640      0.619551      0.636101
O       5.79479      1.95038     13.09055        -0.347778     -0.215915      1.229673
O       5.67327     13.33421      0.60397        -0.110866      0.087541     -1.192373
O       5.64450     13.06100     13.22098         0.174540      0.487943     -1.491247
O       5.75238      1.82841      4.71502        -0.251838      0.034487      0.370591
O       5.58558     13.18202      4.59759         0.391625      0.225561      0.601143
O       5.68777      1.83514      8.94280         0.300283     -0.295028      0.504882
O       5.75977     13.27601      9.00373        -0.282813      0.173096      0.301292
O       5.63025      5.70615      0.51227         0.218668     -0.173730      1.179028
O       5.72053      5.60368     13.13356        -0.507780      0.248575      1.538414
O       5.72356      5.76737      4.63901        -0.188285     -0.421191     -0.696018
O       5.89298      5.65612      8.74350        -0.877124     -0.025948      0.446640
O       5.58866      9.49687      0.57163         0.353242     -0.184483     -0.329885
O       5.64792      9.53628     13.22789        -0.158644     -0.036659      0.231914
O       5.77069      9.56108      4.57226        -0.303587     -0.083182      0.905216
O       5.76127      9.34992      8.81112        -0.739069      0.225887      1.456199
O       9.35394      1.92995      0.46677         0.420260      0.032030     -0.010950
O       9.36142      1.87567     13.17901         0.311416     -0.290543      0.491629
O       9.41747     13.18860      0.40357         0.147832      0.105942      0.592568
O       9.51713     13.28968     13.08619        -0.095054     -0.217612      1.352598
O       9.48828      1.98899      4.56452         0.127131     -0.742632      0.584321
O       9.51345     13.33595      4.61798        -0.035586     -0.261183     -0.728442
O       9.59226      1.83277      8.99232        -0.092754      0.095367      0.321136
O       9.53552     13.29004      8.90981        -0.046480     -0.211713      0.466698
O       9.61023      5.63752      0.42144        -0.513369     -0.075476      0.058768
O       9.39898      5.63600     13.25475         0.233145      0.113862      1.245751
O       9.56361      5.69133      4.47559         0.084628      0.397315      0.850072
O       9.55548      5.53538      8.89320        -0.199273      0.304005      1.370114
O       9.50850      9.45463      0.38449         0.029014      0.525653      0.714146
O       9.46319      9.34605     13.26365         0.477989      0.235890     -0.176056
O       9.47561      9.53212      4.77408         0.378383     -0.278068     -0.516230
O       9.48192      9.39762      9.00875        -0.070223      0.205281      0.546495
O       3.73015      1.97987      2.70589        -0.177942     -0.057410     -0.060088
O       3.92404      1.74791     15.32906        -0.437017     -0.131816     -0.202576
O       3.72100     13.28293      2.67281        -0.901648     -0.092535     -0.080513
O       3.82280     13.34503     15.39764        -0.658927      0.269850     -0.192512
O       0.03361      1.91121      2.63979         0.409318      0.072082     -0.229985
O       0.08797      1.91074     15.39274        -0.062404     -0.086855     -0.196132
O      15.08359     13.17383      2.46804         0.425110      0.722019      0.340660
O       0.01178     13.18523     15.30686         0.141449      0.119750     -0.035873
O       3.80701      1.79313      6.93309         0.108369     -0.026051     -0.253876
O       3.78801     13.24476      6.87719         0.249384      0.432567      0.048732
O      15.11930      1.89341      6.94878         1.188304     -0.435571     -0.057984
O      15.16408     13.16575      6.96926        -0.885695      0.683792     -0.351657
O       3.86655      1.72407     11.11277        -0.447361      0.057106     -0.085863
O       3.80619     13.37591     11.00609         0.135316      0.020198      0.311369
O       0.06312      1.94127     11.16567        -0.631573     -0.629239     -0.402499
O      15.18127     13.21115     11.11449        -0.097900      0.097551     -0.144105
O       3.72122      5.82016      2.59996         1.346902     -0.762819      0.214334
O       3.81872      5.85128     15.38857        -0.582233     -0.655871     -0.247256
O      15.13870      5.77467      2.58968         0.937664     -0.297305     -0.176104
O       0.07270      5.52071     15.38317        -0.726314      0.383633      0.156514
O       3.83282      5.60402      6.74356        -0.663434     -0.081265      0.310205
O      15.12433      5.73117      6.79029         1.365713     -0.165634      0.533433
O       3.80290      5.69320     10.94617        -0.689887      0.220991      0.235368
O      15.19325      5.47697     11.10233        -0.189778      0.479963     -0.167417
O       3.71765      9.52795      2.68941         1.057895      0.486986     -0.028237
O       3.83102      9.39370     15.47463        -0.688981      0.221988     -0.517969
O      15.16604      9.58308      2.66206        -0.139890     -0.216397     -0.598853
O       0.07041      9.70279     15.17289        -0.805652     -0.336984      0.735105
O       3.75308      9.47029      6.81626         0.131825     -0.159110     -0.124978
O      15.12150      9.36653      6.96897         0.422359      0.309014     -0.115421
O       3.78017      9.40510     11.11839        -0.071164      0.041801     -0.346145
O       0.03057      9.55840     11.09855        -0.801227     -0.329742     -0.237028
O       7.52701      1.89308      2.58682         0.578528     -0.289441     -0.132757
O       7.58897      1.98430     15.42588        -0.674745     -0.052183     -0.160346
O       7.56320     13.42547      2.66664         0.307941     -0.611663     -0.265977
O       7.55061     13.12839     15.34702         0.986105      0.350046     -0.041950
O       7.72662      1.88008      6.92954        -1.269747     -0.504034     -0.695275
O       7.62139     13.29414      6.77296        -1.218189     -0.035536     -0.166097
O       7.61329      1.97105     11.12745        -0.327745     -0.217685     -0.240408
O       7.65279     13.14068     11.01898        -0.861758     -0.152251      0.437049
O       7.63529      5.77160      2.67038        -0.740202     -0.098312     -0.496829
O       7.52673      5.64747     15.37143         0.659938     -0.198248      0.444800
O       7.62841      5.62239      6.75339         0.957367      0.463762     -0.849024
O       7.50135      5.66007     11.05965         1.332575     -0.315871     -0.108785
O       7.70558      9.55439      2.61991        -0.954499     -0.404317     -0.015082
O       7.60554      9.55430     15.33155        -0.776239      0.318601      0.487117
O       7.51593      9.46256      6.79032         0.285939     -0.414482     -0.123000
O       7.57273      9.35798     11.15255        -0.361344      0.469329     -0.262769
O      11.45822      1.94611      2.54451        -0.434226     -0.178374     -0.404044
O      11.36830      1.88562     15.38908         0.160458     -0.514171     -0.231701
O      11.38512     13.26567      2.52497        -0.222282      0.316389      0.108682
O      11.36141     13.42912     15.23112        -0.017655     -0.353712     -0.068151
O      11.42661      1.91405      6.93265        -0.530021     -0.192255     -0.599135
O      11.33580     13.13467      6.77927         0.063488      0.318535      0.200965
O      11.37160      1.78936     11.26123         0.213656      0.146749     -0.374682
O      11.39399     13.37603     11.08856         0.105218     -0.343628      0.420637
O      11.40780      5.62370      2.52111         0.770225     -0.068450      0.188250
O      11.37037      5.86379     15.24528         0.264300     -0.635753      0.096821
O      11.41858      5.68589      6.88548        -1.142152     -0.273551     -0.497506
O      11.37498      5.62187     11.17949         0.605038      0.246333     -0.129835
O      11.44771      9.54071      2.45722         0.247555     -0.099963      0.324313
O      11.45304      9.36093     15.27603         0.125027      0.183041      0.119367
O      11.31750      9.40184      6.94652         0.359989      0.996489     -0.217958
O      11.41717      9.26161     11.16909        -1.032227      0.113148      0.272352
O       1.92012      3.87171      2.56270        -0.344522     -1.408706      0.067519
O       2.05824      3.71036     15.28785         0.070224      0.440302      0.343638
O       1.89698      0.07639      2.78405        -0.443477     -0.034104     -0.685077
O       1.80237     15.12512     15.43091         0.709365      0.057272     -0.862672
O      13.39303      3.77049      2.52900        -0.110660     -0.145048     -0.070197
O      13.32866      3.77773     15.34375        -0.401924     -0.220364      0.377358
O      13.36468     15.16629      2.56692        -0.272011      0.280049      0.087451
O      13.36608     15.15371     15.36224         0.136121     -0.406307     -0.417966
O       1.95727      3.77709      6.97509        -0.642499     -0.278699     -0.217929
O       1.84299     15.11800      7.05018        -0.051854      0.807255     -0.506107
O      13.37187      3.78478      6.94974        -0.451372      0.209241     -0.275943
O      13.28810     15.11754      6.85530        -0.040960      0.452028      0.061659
O       2.04044      3.72703     11.10430        -0.248324     -0.112024     -0.245741
O       1.84959     15.09644     11.25330         0.141885      1.370165     -0.537695
O      13.22327      3.71178     11.15766         0.115762      0.535356     -0.046075
O      13.29288      0.01045     11.15582         0.590232     -0.555509      0.105506
O       1.97226      7.64798      2.59346        -1.016708     -0.178117      0.169517
O       1.73316      7.56683     15.09279         0.100064      0.705583      0.707552
O      13.32523      7.63528      2.46088        -0.335152     -0.463922      0.029867
O      13.38891      7.52532     15.33914         0.732674      1.319061      0.109609
O       1.91713      7.50667      6.89230        -0.005058      0.377654     -0.031574
O      13.18085      7.59464      6.98713         0.486812     -0.275862     -0.231877
O       1.91822      7.58326     11.11952        -0.582928     -0.791136     -0.444210
O      13.42069      7.56738     11.12347        -0.230484     -1.558829     -0.351647
O       1.80897     11.44151      2.70021         0.269336     -0.109330     -0.268969
O       2.04264     11.40769     15.43075        -0.180291     -0.409943     -0.144190
O      13.22058     11.37966      2.54113         0.201137      0.216885     -0.119914
O      13.21182     11.39777     15.18428        -0.256397     -0.700065      0.277545
O       1.92125     11.43423      6.87289        -0.137663     -1.758919      0.188690
O      13.29609     11.37155      6.92810        -0.411140     -0.309321     -0.132017
O       1.98943     11.34955     11.01456         0.082387      0.240119      0.243144
O      13.07936     11.29994     11.09239         0.551197      0.862915      0.174835
O       5.70534      3.82007      2.76703        -0.696727     -0.248113     -0.966858
O       5.67081      3.78532     15.39006        -0.454156     -0.449774     -0.047466
O       5.57819      0.00620      2.77745         0.057159      0.807103     -0.446462
O       5.79953     15.12162     15.39069         0.222276      1.003271     -0.520743
O       5.72986      3.67359      6.77358        -0.032659      0.687053      0.052264
O       5.74270     15.09236      6.81835         0.061799      0.401002     -0.036500
O       5.59083      3.87375     10.94642         0.038403     -2.760833      0.375729
O       5.85235     15.17347     11.24190        -0.483976     -0.595386     -0.659145
O       5.75935      7.65162      2.70537        -0.195389     -0.463532     -0.287526
O       5.73911      7.57960     15.35357         0.216075      0.511401      0.149626
O       5.63025      7.53636      6.73096         0.240304      0.724458     -0.041866
O       5.65075      7.51760     11.08241        -0.050789      0.579521     -0.306776
O       5.74749     11.42563      2.52876        -0.120204     -0.355570      0.212760
O       5.61318     11.42232     15.50254        -0.089420     -1.093526      0.077923
O       5.65015     11.36881      6.81284         0.382708     -0.001399     -0.015740
O       5.66549     11.29425     11.01453        -0.157989      0.262629      0.110930
O       9.44263      3.82156      2.64584         0.175798     -1.624382     -0.655363
O       9.53664      3.75764     15.44066        -0.182761      0.269728     -0.162811
O       9.58902     15.13302      2.44086        -0.324179      1.067848      0.389649
O       9.28267      0.02305     15.37948         0.604683     -1.134071     -0.438424
O       9.58846      3.78507      6.69554        -0.111583      0.769869     -0.058047
O       9.59927      0.00488      6.69010        -0.252525     -0.516501      0.115576
O       9.51053      3.74210     11.24693         0.082569      0.204970     -0.554086
O       9.36389     15.10380     11.08964         0.264215      0.835974      0.152863
O       9.70750      7.60097      2.58798        -1.052196      0.225068     -0.178716
O       9.31483      7.62561     15.53537         0.749542     -0.814208     -0.453370
O       9.59417      7.58454      6.88662        -1.017047     -0.971983     -1.008430
O       9.42644      7.43345     11.11396         0.361363      0.881168      0.130475
O       9.59280     11.36917      2.56700        -0.534343      0.326933      0.070941
O       9.57340     11.38687     15.32042         0.188226      0.150263     -0.079511
O       9.33843     11.38229      6.82498         0.696376      0.094946      0.176506
O       9.56233     11.27955     11.08515         0.450771      0.542058      0.164824
