  # total energy = -7880.73890935 
CRSYTAL
PRIMVEC
    15.3600000000000000    0.0000000000000000    0.0000000000000000
     0.0000000000000000   15.3600000000000000    0.0000000000000000
     0.0000000000000000    0.0000000000000000    17.440000000000000
PRESSURE
2.38047 2.54009 0.890535 0.264953 0.078062 -0.005411
PRIMCOORD
320 1
Pb       3.79094      3.87118      4.21897        -0.037374     -0.515524      0.643686
Pb       3.77129      3.89273     17.33501         0.259191      0.088900     -0.088707
Pb       3.84423      0.01389      4.22223         0.378967     -0.090456      0.234829
Pb       3.95613      0.07533      0.02002        -0.415026     -0.573224      0.559686
Pb      15.21805      3.90212      4.27920         0.479072     -0.020852      0.544292
Pb      15.21381      3.77417     17.39396         0.221201      0.300915      0.106798
Pb      15.22813     15.29928      4.30436         0.098122      0.069892      0.842429
Pb       0.04777     15.34022      0.01021        -0.115044      0.021401     -0.254734
Pb       3.91210      3.87236      8.59921         0.067986     -0.480345      0.752080
Pb       3.77400     15.25813      8.78296         0.473591      0.198337     -0.214456
Pb       0.13337      3.67111      8.65900        -0.503285      0.317794      0.021019
Pb       0.15760     15.32006      8.58600        -0.837488      0.011949      0.466600
Pb       3.81272      3.93784     13.08378        -0.111485     -0.430158     -0.243950
Pb       3.96452     15.28354     13.25057        -0.447217      0.792907     -0.700877
Pb      15.23473      3.85068     12.98145         0.445501      0.447256      0.239283
Pb      15.34928      0.05319     12.99421        -0.238378     -0.699064      0.015396
Pb       3.81039      7.63948      4.27777         0.037660     -0.067861      0.282531
Pb       3.82471      7.77734      0.01141        -0.067855     -0.442626     -0.735651
Pb      15.21819      7.46634      4.31322        -0.003879      0.269731      0.247211
Pb       0.13406      7.69862     17.39495        -0.301042     -0.532524     -0.190516
Pb       3.85157      7.53241      8.69822        -0.126734      1.163043      0.544774
Pb      15.32833      7.67117      8.69271         0.230592     -0.187162      0.081948
Pb       3.79349      7.81160     13.08461         0.379941      0.097793     -0.200919
Pb       0.01409      7.72982     12.90534        -0.456093     -0.234182      0.427510
Pb       3.81613     11.42070      4.31807        -0.276051      0.478192      0.142150
Pb       3.76059     11.40755     17.42464         0.484392      0.333843      0.108425
Pb       0.00360     11.43939      4.26573        -0.780800      0.179552      0.642438
Pb       0.07575     11.39546      0.04533        -0.403586      0.489806      0.117027
Pb       3.70365     11.50937      8.68461         0.552157     -0.115803     -0.047382
Pb       0.08188     11.54524      8.60143        -0.683441      0.097853      0.571426
Pb       3.74647     11.57564     13.01310         0.223658     -0.596793      0.182633
Pb      15.15827     11.41836     13.06912         0.379474      0.480081     -0.242410
Pb       7.59940      3.92577      4.32029         0.022763     -0.623629     -0.116895
Pb       7.70617      3.85328     17.28166        -0.296262      0.083906      0.721465
Pb       7.59818      0.02986      4.17851         0.026252      0.222224      0.376939
Pb       7.79352     15.28830     17.43217        -0.153354      0.136987      0.634341
Pb       7.70285      3.71703      8.72012         0.282821      0.206076     -0.078173
Pb       7.66820     15.34336      8.65224        -0.065607      0.320075      0.580088
Pb       7.49859      3.68364     13.06391         0.349851     -0.133659      0.641679
Pb       7.68453     15.08416     13.15332         0.343291      1.459276      0.067800
Pb       7.57113      7.74686      4.33536         0.417663     -0.108554      0.148991
Pb       7.79942      7.51214     17.38461        -0.405753      0.403774     -0.054769
Pb       7.57630      7.65800      8.68149         0.555306     -0.379148      0.242330
Pb       7.66322      7.61175     13.00312         0.164892      0.022297      0.836292
Pb       7.66832     11.52724      4.26029         0.326821     -0.400073      0.473091
Pb       7.71326     11.46092     17.39242        -0.006739      0.168094      0.120528
Pb       7.73244     11.38976      8.76352        -0.516748      0.256462      0.133208
Pb       7.58068     11.47859     13.10088         0.273405      0.004717     -0.430929
Pb      11.53714      3.88925      4.38875        -0.026664     -0.389282      0.207348
Pb      11.28900      3.79598     17.27634         1.333198     -0.128535      1.461992
Pb      11.42723      0.14359      4.26367         0.219539     -0.170470      0.802379
Pb      11.70892      0.02668     17.29839        -0.635243      0.292004      0.937176
Pb      11.64915      3.73846      8.72241        -0.386164      0.350122     -0.226312
Pb      11.49356     15.24843      8.62188         0.324717      0.471688      0.048787
Pb      11.41346      3.90561     12.93869         0.890888     -0.176415      0.852528
Pb      11.43721     15.28831     13.05058         0.265357      0.437042     -0.126726
Pb      11.51334      7.71301      4.34774        -0.220440      0.078181      0.629612
Pb      11.46518      7.62698     17.35491         0.004124     -0.148773      0.250894
Pb      11.43153      7.58509      8.67755         0.004928     -0.347630      0.347618
Pb      11.62003      7.74363     12.88167        -0.214709     -0.831583      0.872118
Pb      11.40387     11.55306      4.40316         0.357659     -0.446912      0.499313
Pb      11.65535     11.56869     17.42687        -0.754019     -0.144179      0.324188
Pb      11.36309     11.51821      8.75443         0.807706      0.334313      0.193368
Pb      11.37858     11.52010     13.00711         0.011299      0.235256      0.326636
Ti       1.87782      1.85267      2.36983         0.078860      1.085269      0.337902
Ti       1.94238      1.85408     15.40248        -0.284775      0.753282     -0.435252
Ti       1.92556     13.42103      2.31266        -0.167346      0.132115      0.721143
Ti       1.92143     13.38630     15.57052        -0.613610      0.008834     -1.281330
Ti      13.44959      1.95018      2.31694        -0.650089      0.779788     -0.370044
Ti      13.43955      1.94123     15.34105         0.281046      0.752144     -0.959813
Ti      13.35295     13.44145      2.38755         0.359526     -0.279585     -0.481951
Ti      13.45250     13.41422     15.40840         0.856223      0.494038      0.219199
Ti       2.07442      1.95411      6.68649        -0.785587     -0.214384     -1.210258
Ti       1.91251     13.48088      6.59350         0.597870     -0.412435     -0.811811
Ti      13.47429      1.82577      6.74485        -0.396834      0.231495      0.276579
Ti      13.41584     13.35585      6.73549        -0.237532      0.204531      0.900812
Ti       1.94918      1.86193     11.16768         1.021380      0.414844     -1.154697
Ti       1.88226     13.41326     11.07190        -0.849492      0.202947     -1.225439
Ti      13.47022      1.92175     11.04731        -0.657259     -0.406752     -0.931762
Ti      13.37879     13.40193     10.97738         0.922898      0.903979     -0.815705
Ti       1.92336      5.74027      2.20195        -1.231097     -0.717296     -0.376287
Ti       1.90516      5.73339     15.33889        -0.021476      0.928867      0.647720
Ti      13.30582      5.82450      2.31235         1.051505     -1.392811      0.499571
Ti      13.47940      5.77511     15.43364        -0.348652     -0.171593     -1.091150
Ti       1.97527      5.84234      6.78492        -1.147030     -0.793244      0.108497
Ti      13.45202      5.73729      6.84221        -0.536224     -0.667055     -1.226056
Ti       1.96302      5.77960     11.06682        -0.815147     -0.020099     -1.285385
Ti      13.40914      5.76051     10.97681         0.066381     -0.141141     -1.569923
Ti       1.81402      9.52032      2.37566        -0.668226      0.177567     -0.098679
Ti       1.82999      9.64638     15.33805         1.186165     -1.685256      0.864775
Ti      13.31262      9.62911      2.33101         0.292174     -0.266603      1.842880
Ti      13.38029      9.63651     15.50257        -0.144606     -0.956286     -1.179166
Ti       1.83773      9.59598      6.62971         0.686462     -0.257738      0.783398
Ti      13.40703      9.57143      6.80284        -0.813602      0.986729     -0.561672
Ti       1.85233      9.63168     10.93932         1.092897      0.120612      1.253659
Ti      13.36427      9.65721     10.89428         0.951192     -0.605548     -0.715946
Ti       5.74675      1.94552      2.21696         0.640071     -0.193773     -0.024072
Ti       5.81871      1.81746     15.54310         0.726895      1.584931     -1.963557
Ti       5.78474     13.28752      2.38618         0.384675      1.971602     -1.685971
Ti       5.71808     13.41815     15.51629         0.719326     -0.859762      2.082157
Ti       5.80269      1.83756      6.67611         0.202027      0.414244     -0.905718
Ti       5.76364     13.33814      6.70598        -0.722647      0.905252      0.256298
Ti       5.73731      1.91057     11.03722         0.212645     -0.312241      0.667231
Ti       5.64921     13.53026     11.08102         1.456278     -1.597599     -1.052725
Ti       5.67866      5.75043      2.29699         1.659034      0.119361      0.208834
Ti       5.67197      5.76144     15.43402         0.875483      0.402246     -0.322588
Ti       5.76943      5.75367      6.67764         0.786972     -1.016425     -0.723613
Ti       5.77211      5.80351     11.04914         0.052896      0.107519      1.305740
Ti       5.64431      9.56769      2.29182         1.143511     -0.174706     -0.144557
Ti       5.70541      9.61495     15.49275         0.216721     -0.793338     -0.253992
Ti       5.68718      9.58272      6.71758         0.066253     -0.575258      1.506292
Ti       5.80288      9.58808     11.09882        -1.725489      0.958338     -0.318576
Ti       9.61975      1.88071      2.29273         0.065529      1.077630      0.227572
Ti       9.58967      1.89452     15.41004        -0.221987      0.118594     -1.818554
Ti       9.61211     13.38133      2.34959         0.600385      0.380983     -0.197579
Ti       9.65840     13.45660     15.52222        -0.993025     -0.529357     -1.346394
Ti       9.59860      1.95733      6.62621         1.208581      0.185224     -1.082308
Ti       9.49714     13.49021      6.73402         1.634839     -0.709698     -1.498380
Ti       9.59012      1.95845     11.12018        -0.850479     -1.424184     -0.609357
Ti       9.55207     13.52458     11.06423         0.330485     -0.407477      1.207777
Ti       9.54734      5.70770      2.43482         0.532147     -0.535594     -1.313593
Ti       9.63517      5.71547     15.32821        -0.364434     -0.120186      0.256711
Ti       9.52639      5.70176      6.68279         1.296415      0.475446      2.154177
Ti       9.51020      5.65452     11.05220         1.438053      1.160887     -2.050382
Ti       9.54100      9.51953      2.31460         0.284724      0.503584     -0.858635
Ti       9.56933      9.55559     15.38384        -0.127034      0.933647      0.477152
Ti       9.60707      9.53314      6.90712         0.129103      0.181827     -0.994570
Ti       9.58323      9.56368     11.10918        -0.206319     -0.082964     -0.936622
O       1.67010      1.93707      0.64991         0.552081     -0.033209     -1.144975
O       2.13049      1.96974     13.63891        -0.538976     -0.838535      0.661744
O       1.74066     13.37157      0.54912         0.528059     -0.104610      0.366156
O       1.98504     13.33807     13.79942         0.148583      0.142299     -0.249222
O      13.52069      2.05556      0.51145        -0.110780     -0.536749      0.873456
O      13.58944      1.98997     13.57570        -0.200435     -0.387574     -0.012342
O      13.28551     13.48394      0.60526         0.129187     -0.097833     -0.067984
O      13.43645     13.28352     13.68585        -0.097124      0.338770     -0.780391
O       2.12458      2.00940      4.90308         0.026115     -0.491462      0.904879
O       1.85771     13.47324      4.80205         0.327051      0.002082      0.469106
O      13.37203      1.91737      5.01125         0.025925     -0.049705     -1.176780
O      13.45444     13.36639      5.00436        -0.017261     -0.018047     -1.320348
O       1.97585      1.87028      9.37211        -0.202516      0.224086     -0.204352
O       1.80706     13.38463      9.24681         0.800747      0.161194      0.816316
O      13.49548      1.83647      9.21856         0.015186      0.188323      1.610337
O      13.44311     13.56103      9.21288         0.007688     -0.227107      0.729775
O       1.88794      5.78708      0.42107         0.110303     -0.259986      1.089128
O       1.83473      5.73443     13.58460         0.493380      0.549117     -1.023670
O      13.39947      5.67170      0.61896        -0.105449      0.218109     -2.056344
O      13.41143      5.79685     13.65757         0.168412      0.022695      0.315307
O       1.86265      5.73599      5.06548         0.302697      0.329383     -1.199778
O      13.53469      5.75291      4.97659         0.142073     -0.005595      0.729388
O       2.04277      5.95738      9.22644        -0.442275     -0.819751      1.215420
O      13.25722      5.75352      9.16834         0.929885      0.146187      0.262304
O       1.78759      9.60131      0.59489         0.361588      0.074155      0.606243
O       1.82311      9.60419     13.60646        -0.007564      0.116030     -0.987068
O      13.33183      9.69851      0.64595        -0.132011     -0.150775     -3.092205
O      13.41708      9.63492     13.72441         0.269225      0.148004     -0.000897
O       1.84391      9.56824      4.88276         0.120143     -0.062821     -1.060564
O      13.36738      9.69524      5.03062         0.085960     -0.295884     -0.092380
O       1.87087      9.59530      9.22219         0.012399      0.041808     -1.020312
O      13.35277      9.54077      9.13914         0.382868     -0.114147      0.995050
O       5.88893      2.01775      0.42399        -0.792029     -0.224105      1.095591
O       5.83340      1.78725     13.65162        -0.369957     -0.026441      1.717458
O       6.01482     13.20710      0.62295        -0.853519      0.472919      0.018340
O       5.69434     13.57559     13.80939        -0.157196     -0.142608     -1.868239
O       5.75169      1.85984      4.83677         0.146115      0.025154      1.296328
O       5.85150     13.49910      4.96952        -0.202397     -0.491809     -0.712335
O       5.76119      1.86972      9.28648         0.220845      0.214175      0.036750
O       5.54063     13.44994      9.34276         0.419832     -0.091070     -0.709225
O       5.70637      5.72449      0.56526         0.181322     -0.042293     -0.685490
O       5.70899      5.81197     13.68557        -0.220363     -0.087469     -0.525962
O       5.75855      5.64833      4.89829        -0.164913      0.676248      0.039607
O       5.82807      5.88018      9.34130        -0.162908     -0.230826     -1.378580
O       5.61398      9.68267      0.55274         0.002604     -0.106713     -0.548908
O       5.70098      9.53044     13.75216         0.185743      0.377567     -0.975743
O       5.79286      9.47987      4.99793        -0.160382      0.340483     -1.308030
O       5.71307      9.71276      9.35426         0.406704     -0.691741     -0.254393
O       9.75558      1.93034      0.53902        -0.441168     -0.233406     -0.559426
O       9.46539      1.95832     13.62238         0.226386     -0.078826      0.378725
O       9.72639     13.45018      0.58509        -0.347808     -0.111203     -0.256836
O       9.68664     13.54235     13.71027         0.020733     -0.261792      0.268392
O       9.77085      2.14875      4.81458        -0.852307     -1.045565      1.220537
O       9.70656     13.45481      4.93844        -0.811888     -0.378205      0.704348
O       9.35863      1.76564      9.36819         0.654895      0.475040      0.062612
O       9.57794     13.50481      9.36467        -0.145276      0.132636     -2.043707
O       9.65657      5.76767      0.60746        -0.412152      0.267334      0.831621
O       9.78319      5.52378     13.62524        -0.704089      0.897717     -1.050990
O       9.70740      5.89279      5.00271        -0.510555     -0.440955     -2.258717
O       9.51454      5.71688      9.23407        -0.052009     -0.067401      1.122579
O       9.64416      9.35089      0.52928        -0.164928      0.657676      0.940222
O       9.56528      9.70836     13.63110        -0.018504     -0.325568     -0.315559
O       9.55625      9.48880      5.15638        -0.074422      0.467519     -1.154258
O       9.70094      9.58506      9.30594        -0.895539     -0.044361      1.295826
O       3.82187      1.95454      2.62169         0.733426     -0.147931     -0.135988
O       3.94137      1.79063     15.93301        -1.547104      0.464172     -0.310404
O       3.92328     13.36895      2.76091        -1.554834      0.120594     -0.214120
O       3.78507     13.47903     15.98376         1.385833     -0.173188      0.110045
O       0.00926      1.79365      2.86126        -0.782689      0.508895     -0.372579
O       0.04781      1.96784     15.79503         0.505453     -0.619040     -0.203997
O      15.33656     13.63571      2.71848        -0.030104     -1.076734     -0.360856
O      15.35430     13.47545     15.80477        -0.714729     -0.248428      0.345512
O       3.99352      1.98698      7.17501        -1.478466     -0.323114     -0.320995
O       3.80772     13.42269      7.01864         0.370552     -0.405543      0.221972
O       0.02821      1.80880      6.94453         1.414391      0.567402      0.610337
O       0.11052     13.38041      7.04102        -1.231823      0.391018      0.142163
O       3.85540      1.79940     11.47842         0.480037      0.369663      0.267797
O       3.85299     13.51958     11.42616        -1.303121      0.016111      0.943827
O       0.03845      1.91042     11.49686        -0.729828      0.157964     -0.056942
O       0.00809     13.41986     11.41228        -0.466837     -0.325115      0.495307
O       3.86158      5.86618      2.56497        -1.495673     -0.416491      0.619598
O       3.83125      5.86136     15.92613        -0.280003     -0.984839     -0.368290
O      15.31874      5.78904      2.69000         0.845503     -0.318438      0.056846
O       0.06711      5.82218     15.77270        -1.200743      0.212127      0.165593
O       3.89593      5.75698      7.14846        -0.585818     -0.145895     -0.294995
O       0.01730      5.74208      7.16448         0.033023      0.071936      0.351069
O       3.85131      5.90146     11.35208        -0.226576      0.017552      0.579031
O       0.01242      5.61385     11.25318         0.395775      1.007709      0.376483
O       3.79523      9.45559      2.72498        -0.969383      0.777805      0.365278
O       3.76732      9.71840     15.84527         0.039374     -0.573566      0.013577
O      15.20940      9.61568      2.62116         1.974449     -0.170060      0.541394
O       0.01663      9.66641     15.89593        -1.252561     -0.659799     -0.165006
O       3.82632      9.46753      7.02807        -0.490088      0.546983     -0.071397
O      15.32895      9.64526      7.10987         0.026277     -0.745722     -0.101248
O       3.83063      9.45153     11.39170        -0.348444      0.228746      0.383759
O      15.31477      9.72545     11.36250        -0.462910     -0.384184      0.067257
O       7.68381      1.90070      2.60500        -0.380863      0.110929      0.305387
O       7.73729      1.96394     15.91413        -0.900338     -0.197860     -0.143138
O       7.72346     13.42822      2.77637         0.037722     -0.140197      0.179154
O       7.68558     13.43058     15.79520        -0.262657     -0.299824      0.227105
O       7.75767      1.84127      7.14553        -1.269646      0.424695     -0.431892
O       7.65191     13.38035      7.08067        -0.328226     -0.255028      0.301751
O       7.63753      1.93969     11.51903        -0.411379      0.311039     -0.254486
O       7.72679     13.46398     11.48002        -1.565657     -0.344401      0.292862
O       7.66697      5.77458      2.81661         0.083330      0.073556     -0.182503
O       7.63836      5.73767     15.78000         0.512818      0.329816      0.036260
O       7.67840      5.73551      7.03650        -0.268705      0.294790      0.065002
O       7.72065      5.71617     11.43899        -1.156562      0.239290      0.464544
O       7.52199      9.70028      2.60745         1.663883     -0.454420      0.544528
O       7.66212      9.62332     15.91525         0.262029     -0.260437     -0.435846
O       7.68943      9.52664      7.27387        -1.135320      0.329565     -0.195824
O       7.70028      9.61620     11.50839         0.173768      0.281513      0.060072
O      11.48297      2.06376      2.78448         1.307204     -0.598639     -0.384325
O      11.49188      2.04376     15.52596         0.753781     -0.729972      0.734769
O      11.50678     13.27793      2.81219        -0.371405      0.896545     -0.183990
O      11.50916     13.57317     15.82821         0.792811     -0.389577      0.061117
O      11.48496      1.88358      7.11589        -0.226396     -0.432880      0.184786
O      11.48723     13.36755      7.12990        -0.433648      0.351732      0.064548
O      11.52295      2.09204     11.46806         0.652058     -1.363091     -0.522726
O      11.51617     13.46309     11.41704         0.014710      0.018262      0.338217
O      11.51265      5.77334      2.84931        -1.258732      0.091048     -0.205625
O      11.45585      5.55410     15.85949         0.985558      1.693773     -0.538089
O      11.57027      5.65295      7.07964        -0.687563     -0.004209      0.150791
O      11.54345      5.76577     11.27533        -0.872900      0.049465      0.920265
O      11.47589      9.64484      2.80910        -1.155212     -0.411089     -0.139855
O      11.49891      9.59882     15.77371        -0.199301      0.095260      0.314690
O      11.47979      9.78023      7.30176         0.426835     -1.242177     -0.852027
O      11.51435      9.58541     11.43368        -0.191855      0.276857      0.054209
O       1.95719      3.83551      2.76987        -0.356388      0.810495     -0.638276
O       1.91143      3.88874     15.59334         0.940814     -1.405319      0.931383
O       2.03792     15.33720      2.61066        -0.082638     -0.615229      0.232980
O       1.95340     15.27198     15.84742        -0.199740      1.967950      0.242713
O      13.44528      3.85810      2.75549         0.264963     -0.662157      0.047796
O      13.51027      3.83800     15.70146         0.179216      0.312282      0.431138
O      13.28325      0.05028      2.63434         0.130722     -0.243371      0.386144
O      13.44357      0.06594     15.77635         0.229593     -0.499225     -0.142012
O       1.98578      3.82099      7.12774        -0.020458     -0.150689      0.245937
O       2.03568     15.34258      7.08393        -0.077345      0.697520     -0.246391
O      13.40503      3.72385      7.17563         0.778027      0.841904      0.031144
O      13.48447     15.28403      7.05606        -0.279871     -0.075628      0.273200
O       1.95494      3.81590     11.53221         0.489608      0.700212     -0.410103
O       1.86756     15.30759     11.37199         0.097259      0.190265      0.760586
O      13.44944      3.92092     11.31559         0.187597     -1.831156      0.356386
O      13.43862     15.34043     11.48443         0.027877      0.494459      0.103234
O       1.89119      7.60276      2.62554        -0.116665      0.819474      0.369939
O       2.03567      7.71320     15.83790        -0.853033      0.458440     -0.186905
O      13.38678      7.63335      2.69027        -0.026851      1.475985      0.375048
O      13.36750      7.68890     15.79672         0.290035     -0.088962      0.395606
O       1.89035      7.70319      7.10281        -0.092350     -0.032192     -0.009509
O      13.25930      7.68006      7.03553         0.800600     -0.287919      0.265858
O       1.74897      7.78299     11.39325         0.385491     -1.415204      0.081176
O      13.43281      7.64092     11.41713         0.522448      1.340821     -0.187395
O       1.88374     11.49533      2.85757         0.314074     -0.202706     -0.912969
O       1.85982     11.41914     15.86867         0.112849      1.795306      0.431591
O      13.34478     11.50681      2.69701         0.743090      0.932790      0.254722
O      13.40057     11.54730     15.81102         0.021230      0.028781      0.500383
O       1.84646     11.47241      7.04812         0.905164      0.237657     -0.345386
O      13.39697     11.51773      7.26244         0.530179      0.204353     -0.343132
O       2.05928     11.53195     11.42026        -0.344146     -0.204403     -0.063557
O      13.43002     11.49743     11.29785        -0.368891      0.216893      0.398451
O       5.74728      3.86567      2.75695         0.037031     -0.457978     -0.410113
O       5.76842      3.79550     15.72986        -0.553629      0.271231      0.284644
O       5.80138     15.33371      2.60217        -0.385542      0.535220      0.136444
O       5.88403     15.34605     16.02578        -0.652734     -0.748758     -0.276597
O       5.84652      3.85312      7.11313        -0.152910     -0.502751      0.087930
O       5.76290     15.34966      7.12298        -0.077379     -0.376726     -0.174104
O       5.73755      3.95266     11.47947        -0.443575     -1.182618     -0.225999
O       5.80892     15.33554     11.39134        -0.079500      0.753114      0.573202
O       5.78981      7.69283      2.70167        -0.230283     -0.352613      0.214363
O       5.68132      7.71827     15.75206         0.114200     -0.422950      0.878188
O       5.72052      7.58145      7.11587         0.551415      1.133566     -0.023687
O       5.87583      7.74128     11.61394        -0.367490     -1.110685     -0.584829
O       5.68676     11.50828      2.72199        -0.042002     -1.663373      0.958408
O       5.65752     11.50736     15.80405         0.498483      1.039616      0.243434
O       5.65189     11.44034      7.18721         0.543254      0.611682     -0.584636
O       5.61349     11.49328     11.49909         0.892400      0.471540      0.548374
O       9.59352      3.81406      2.65122        -0.333539      1.290105      0.355382
O       9.58095      3.83588     15.75909        -0.789969     -0.110090      0.276446
O       9.69002      0.01771      2.68928        -0.323238     -0.898385      0.067619
O       9.43807      0.04085     15.77130         1.022278     -0.621353      0.271786
O       9.59390      3.79727      7.06725        -0.333633      0.114330      0.220801
O       9.54309      0.00174      6.98210         0.164031     -0.444763      0.338396
O       9.61691      3.81143     11.37600        -0.397226      0.653519      0.306111
O       9.58027      0.06763     11.53296         0.469013     -0.779638      0.291068
O       9.56332      7.71630      2.77890        -0.166949     -0.274362      0.198421
O       9.60457      7.65995     15.74540         0.035327     -0.443072     -0.092745
O       9.64866      7.63897      7.12691        -0.106721     -0.492142      0.484978
O       9.56452      7.63047     11.48816         0.186498      0.845475     -0.065325
O       9.54105     11.47682      2.76612        -0.029976     -0.088488     -0.119025
O       9.60113     11.53210     15.75148         0.291387     -0.033960      0.377822
O       9.56107     11.46127      7.32159        -0.577568      1.336385     -0.612040
O       9.52912     11.60345     11.54491         0.394141     -1.176798     -0.192166
