  # total energy = -7884.14670833 
CRSYTAL
PRIMVEC
    15.3600000000000000    0.0000000000000000    0.0000000000000000
     0.0000000000000000   15.3600000000000000    0.0000000000000000
     0.0000000000000000    0.0000000000000000    17.440000000000000
PRESSURE
0.261763 0.500488 3.47852 -0.33132 -0.056301 0.024439
PRIMCOORD
320 1
Pb       3.81059      3.83030      4.35709         0.255379     -0.017381     -0.405836
Pb       3.88868      3.81914     17.37691        -0.470492      0.090179      0.229144
Pb       3.82694     15.34981      4.32390        -0.281349     -0.430546      0.000234
Pb       3.85956      0.00713     17.40732        -0.455932     -0.413329     -0.134219
Pb      15.32445      3.82271      4.35646         0.196616      0.152752     -0.245284
Pb       0.01825      3.82274      0.00105         0.007726      0.112102     -0.320280
Pb      15.35327     15.33188      4.33055         0.355501     -0.258656     -0.537761
Pb      15.25513     15.33316     17.41633         0.225946      0.085133     -0.377072
Pb       3.81129      3.86373      8.63954        -0.294611     -0.038491     -0.123279
Pb       3.82240     15.33184      8.74281        -0.050411      0.096718     -0.438304
Pb      15.23248      3.83842      8.65318         0.855207      0.207041     -0.193752
Pb      15.31703      0.05638      8.67854         0.134565     -0.672953     -0.028619
Pb       3.85188      3.80019     13.01275        -0.415531     -0.100515     -0.527223
Pb       3.81086     15.29399     13.02791        -0.402524      0.494246     -0.444378
Pb      15.32570      3.77503     13.06650         0.254970     -0.061045     -0.190297
Pb      15.34527      0.00968     12.98987        -0.005641     -0.069764      0.170792
Pb       3.85280      7.68652      4.30042         0.061429     -0.486948      0.309958
Pb       3.78915      7.66604      0.00462        -0.151074     -0.073665     -0.518902
Pb       0.05424      7.66326      4.31529        -0.413267      0.217249      0.017515
Pb      15.34617      7.72560     17.37520        -0.184393     -0.509488      0.234613
Pb       3.88148      7.63208      8.68803        -0.452015      0.348367      0.098431
Pb      15.33522      7.64441      8.68332         0.177748      0.210295     -0.075573
Pb       3.82911      7.65981     13.06228         0.069597     -0.262181     -0.414953
Pb       0.01124      7.67547     13.05848        -0.525481     -0.091388     -0.181520
Pb       3.76505     11.48252      4.31782         0.174923      0.418169     -0.120193
Pb       3.89188     11.42957     17.37797        -0.485368      0.253144     -0.276898
Pb       0.04316     11.55693      4.26572        -0.230609     -0.110107     -0.123175
Pb      15.32589     11.48183     17.38875        -0.050381      0.059069     -0.410896
Pb       3.80537     11.54636      8.70540         0.004803     -0.251870     -0.716380
Pb      15.35113     11.45063      8.67688        -0.059172      0.174834     -0.188065
Pb       3.87844     11.51218     13.03474         0.040938     -0.057723     -0.502717
Pb       0.02265     11.49096     13.08400        -0.605568      0.068911     -0.528153
Pb       7.66869      3.77594      4.35784        -0.174741      0.282719     -0.408213
Pb       7.70655      3.86354     17.33773        -0.582188     -0.209649      0.282313
Pb       7.66089      0.02218      4.31274         0.253192     -0.334852      0.261531
Pb       7.57228     15.34456     17.37926         0.342405     -0.022458     -0.467641
Pb       7.66423      3.81980      8.68877        -0.243895     -0.134583     -0.485371
Pb       7.68065     15.30721      8.67022        -0.405096      0.485011     -0.604361
Pb       7.72382      3.87068     13.12286        -0.648328     -0.233931     -0.466840
Pb       7.68812      0.03251     13.04085         0.058674     -0.217053     -0.357743
Pb       7.61698      7.62986      4.30275         0.102995     -0.308669     -0.017069
Pb       7.66717      7.64982     17.41397        -0.120236     -0.005990      0.125637
Pb       7.63572      7.72876      8.65665         0.006928     -0.168753      0.023461
Pb       7.65203      7.63994     13.03061        -0.390446      0.304126     -0.309666
Pb       7.65262     11.47341      4.32679         0.108824     -0.120811      0.198753
Pb       7.63567     11.55841     17.36117         0.112902     -0.519239      0.090895
Pb       7.69704     11.49050      8.69355        -0.254291     -0.141480     -0.438924
Pb       7.74612     11.56901     13.06961        -0.361329     -0.533367     -0.705503
Pb      11.54334      3.78454      4.34166        -0.527170      0.367363     -0.335622
Pb      11.50171      3.82587     17.42657         0.421180     -0.047495     -0.012611
Pb      11.51660      0.01474      4.28050         0.128250     -0.678988      0.105584
Pb      11.48693     15.33661     17.32419         0.044723     -0.097924      0.135505
Pb      11.53955      3.90776      8.67911        -0.422187     -0.586103     -0.326331
Pb      11.50212     15.31390      8.67234        -0.000036      0.085931     -0.552328
Pb      11.51264      3.78174     13.10955         0.185424      0.076057     -0.200740
Pb      11.45883     15.33887     13.03036         0.148389     -0.194866     -0.139705
Pb      11.53928      7.67805      4.28812        -0.259544     -0.221214     -0.349240
Pb      11.46757      7.63495     17.42553         0.099750     -0.028824     -0.329219
Pb      11.52803      7.66263      8.67617        -0.265306     -0.053720     -0.401624
Pb      11.46462      7.68394     13.02019         0.815194     -0.087314      0.009769
Pb      11.53094     11.45894      4.35554        -0.223308      0.329635     -0.415367
Pb      11.46109     11.49530     17.39503         0.217635     -0.126183     -0.301386
Pb      11.49505     11.50044      8.74409         0.103032      0.176216     -0.457851
Pb      11.49839     11.50328     13.00170        -0.000107     -0.468812      0.054462
Ti       1.96530      1.95615      2.30221        -0.219281     -1.009734      2.410431
Ti       1.98361      1.91356     15.39097        -1.138372     -0.580809     -1.797554
Ti       1.89850     13.43774      2.17857         0.282934      0.695189      2.639095
Ti       1.87667     13.49139     15.37555        -0.158558     -0.288040      2.757358
Ti      13.51771      1.90180      2.36493        -0.462029      0.117354      0.264541
Ti      13.46818      1.96149     15.36744         0.244621     -1.140435      3.353087
Ti      13.39070     13.36149      2.30369        -0.124574      0.445045      1.583760
Ti      13.39230     13.46371     15.31072         0.605191     -0.422332      1.566322
Ti       1.92344      1.88772      6.64586        -0.118083      0.411847      2.097531
Ti       1.87496     13.39503      6.68442         0.020824      0.304887      1.378168
Ti      13.46892      1.92574      6.64484        -0.969648     -0.491508      2.676240
Ti      13.38525     13.40848      6.63807         0.016263      0.190368      1.704057
Ti       1.83455      1.88496     10.97780         1.254653      0.462168      0.752317
Ti       1.87980     13.42785     10.99498        -0.460784      0.164293      0.487282
Ti      13.38424      1.85141     11.02334         0.236124     -0.033257      3.444896
Ti      13.40553     13.35435     11.07079        -0.115438      0.247397      0.198869
Ti       1.83798      5.75695      2.33618         0.477410     -0.620886      0.472514
Ti       1.85960      5.72005     15.31714        -0.117258     -0.078535      1.498519
Ti      13.40343      5.76771      2.30021         0.124546     -0.170162      1.812993
Ti      13.40474      5.73255     15.36675        -0.036429      0.081558      0.069395
Ti       1.83728      5.81244      6.56897         0.089186     -1.142999      1.864266
Ti      13.38695      5.81612      6.60947        -0.020660     -0.291507      1.454036
Ti       1.87976      5.72773     11.01916         0.249560     -0.273922     -0.418158
Ti      13.47421      5.65555     11.08680        -0.374478      0.341196      2.081375
Ti       1.96015      9.58319      2.28942        -1.074840      0.059845      0.406687
Ti       1.86409      9.57141     15.34715        -0.010730      0.161804      1.922835
Ti      13.47569      9.55315      2.28720        -0.331978      0.001013      1.107770
Ti      13.30145      9.56060     15.41019         0.617045      0.089247     -0.806654
Ti       1.86124      9.54412      6.62437         0.783003      0.635338      0.588689
Ti      13.34122      9.65409      6.60934         0.950308     -0.463759      1.117055
Ti       1.86933      9.59902     11.00758        -0.255471     -0.395939     -1.514539
Ti      13.41100      9.50187     11.00728        -0.396797      0.552309      2.671154
Ti       5.71477      1.82857      2.29284         0.660145      0.390900      2.456449
Ti       5.71215      1.85629     15.27459         0.306598      0.527777      2.605806
Ti       5.74277     13.36527      2.34862        -0.434700      0.069161      1.950475
Ti       5.69381     13.38621     15.28849         0.135341      0.156388      0.069883
Ti       5.68323      1.90737      6.64414         0.821068     -0.136052      0.819138
Ti       5.64732     13.43614      6.59581         0.040060      0.402220      1.431591
Ti       5.70263      1.89717     11.03791         0.060118      0.209835      1.649740
Ti       5.71201     13.42360     10.98662         0.072189     -0.141763      0.347339
Ti       5.72189      5.66609      2.23015         0.094036      0.145486      1.587282
Ti       5.64669      5.75102     15.41435         0.493603     -0.285208     -0.947465
Ti       5.69669      5.83627      6.71436         0.757481     -1.058409      0.856018
Ti       5.72631      5.71384     11.05614        -0.434441     -0.194078     -0.347448
Ti       5.73442      9.53230      2.31740         0.383910      0.263766      0.282997
Ti       5.74865      9.55466     15.35671        -0.267290     -0.310396     -0.763583
Ti       5.73616      9.60698      6.58377        -0.218803      0.125840      0.832725
Ti       5.68459      9.49364     11.01085         1.045833      0.806461      0.856793
Ti       9.61735      1.88083      2.38403        -0.239206      0.195163      1.847641
Ti       9.58186      1.96339     15.42325         0.400595     -1.218344     -0.466336
Ti       9.56832     13.36763      2.30206         0.264526      0.292565      2.986241
Ti       9.55276     13.39417     15.35068        -0.026337      0.246379      0.282805
Ti       9.53973      1.91496      6.62108         0.389621     -0.072407      2.069032
Ti       9.48555     13.36078      6.67888         0.586590      0.538124     -0.074294
Ti       9.57224      1.93014     11.04326         0.010680     -0.845224     -0.223309
Ti       9.52950     13.42193     11.01864         0.760252     -0.203145      2.812590
Ti       9.51350      5.74209      2.20961         0.409975      0.172194      1.822888
Ti       9.51660      5.75257     15.35342         0.675382      0.115273      3.557399
Ti       9.51581      5.71189      6.63426         0.742382      0.269733      0.343179
Ti       9.57989      5.72406     11.04877         0.035105     -0.167407      0.348188
Ti       9.56462      9.57208      2.28672        -0.000407     -0.250367      1.051391
Ti       9.51849      9.52035     15.33361         0.534858      0.549171      2.771767
Ti       9.59686      9.55504      6.63515        -0.181215      0.080517      2.965872
Ti       9.58440      9.50366     10.91970        -0.432954      1.073777      1.187210
O       2.04698      1.83097      0.63304        -0.186916      0.161683     -2.778630
O       2.07758      1.79369     13.56285        -0.539055      0.457234      1.709512
O       1.82355     13.46433      0.47796         0.106111     -0.072278     -1.131576
O       1.83029     13.56370     13.69838         0.110906     -0.447422     -2.132613
O      13.52427      2.03250      0.63150        -0.131969     -0.507311     -0.190511
O      13.51087      1.87378     13.71406        -0.314955     -0.017050     -3.024046
O      13.35580     13.35634      0.59507         0.110471      0.182280     -1.186425
O      13.54753     13.51687     13.60171        -0.337083     -0.307798     -0.881998
O       1.86526      1.99193      4.93253         0.194976     -0.329380     -0.705035
O       1.88404     13.34798      4.95959         0.142279      0.012101     -0.614447
O      13.51421      1.80148      4.96665        -0.062548      0.265845     -2.265127
O      13.34817     13.43729      4.90477         0.394079     -0.144718     -0.234869
O       2.03574      1.93253      9.24441        -0.591471     -0.111641     -0.260392
O       1.90169     13.48310      9.26070         0.182656     -0.497627     -0.405507
O      13.52587      1.97392      9.37438        -0.355346      0.020481     -3.066019
O      13.29043     13.48992      9.34146         0.108561     -0.527237     -0.439937
O       1.84392      5.60805      0.60513         0.065637      0.491380     -0.324258
O       1.88949      5.79556     13.58049         0.132820     -0.043976     -0.230423
O      13.45269      5.76079      0.60430        -0.034707     -0.241565     -2.034243
O      13.51614      5.69795     13.60472        -0.203777     -0.119962      0.474904
O       1.79348      5.71464      4.83149         0.180100      0.024959      0.064406
O      13.57844      5.74332      4.90671        -0.662263      0.170628     -0.705338
O       1.82929      5.86086      9.24406         0.033679     -0.261247      0.589280
O      13.41062      5.70463      9.37085        -0.105903     -0.008922     -0.909468
O       1.75830      9.61964      0.52822         0.748435     -0.517577      0.577680
O       1.91258      9.58473     13.61162        -0.199899     -0.125957     -0.473165
O      13.26844      9.49160      0.55610         0.469605      0.124125     -0.485068
O      13.32391      9.54541     13.64332         0.191106     -0.028815      0.459727
O       2.08934      9.49969      4.85030        -0.874365      0.593914      0.573561
O      13.47115      9.62122      4.88876        -0.371637     -0.063892     -0.860403
O       1.83885      9.56745      9.10957         0.159212      0.143376      2.877649
O      13.28619      9.58737      9.32311         0.167294     -0.103782     -1.853698
O       5.65963      1.65422      0.59595         0.306473      0.369186     -1.494100
O       5.69908      1.87922     13.57701        -0.013813      0.108845     -0.765794
O       5.63115     13.32547      0.64741         0.575769      0.186820     -1.827031
O       5.70569     13.40887     13.51725         0.030353     -0.097676      0.598158
O       5.64451      1.85774      4.90443         0.301352      0.052599     -0.474634
O       5.46134     13.52161      4.88894         0.662632     -0.280643     -1.177797
O       5.76648      1.95699      9.35758        -0.134274      0.093005     -2.204991
O       5.69927     13.42359      9.22360         0.100201     -0.081049      0.445398
O       5.87282      5.77306      0.50396        -0.620276     -0.165077     -0.621513
O       5.75057      5.72686     13.59061        -0.413621      0.091237      1.441519
O       5.84267      5.86250      5.01373        -0.320473     -0.051329     -0.940000
O       5.72234      5.78197      9.27955        -0.024109     -0.101795     -0.185530
O       5.64611      9.59376      0.53974         0.193307     -0.174973      0.192068
O       5.80619      9.56715     13.56121        -0.426605     -0.207563      0.871118
O       5.88007      9.37782      4.84324        -0.601788      0.490863      0.200103
O       5.71750      9.47799      9.26847        -0.021057      0.312245      0.144774
O       9.63451      1.79920      0.70706        -0.218049     -0.079772     -2.586426
O       9.62991      2.02922     13.67514        -0.265596     -0.364336      0.392140
O       9.55398     13.40293      0.61823        -0.178758      0.065700     -2.454275
O       9.41616     13.33806     13.60600         0.349154      0.112838      0.151205
O       9.56481      2.15504      4.91022         0.129742     -0.616427     -1.117526
O       9.59059     13.27233      4.95697        -0.017212     -0.055609     -0.239648
O       9.63996      1.90690      9.26556        -0.238546      0.105325      0.868578
O       9.54250     13.48530      9.33856        -0.103615     -0.088367     -2.552730
O       9.53526      5.95045      0.46379        -0.238822     -0.908838      0.186802
O       9.37239      5.61384     13.69659         0.422127      0.252701     -2.643214
O       9.65549      5.70027      4.89432        -0.249946     -0.187863     -0.146706
O       9.59060      5.71241      9.31773         0.015484     -0.203754      0.107321
O       9.46536      9.54573      0.55938         0.320084     -0.066671     -0.352914
O       9.52756      9.65619     13.66476         0.000311     -0.306715     -2.061798
O       9.66430      9.77386      4.97235        -0.136290     -0.301721     -2.381873
O       9.52358      9.62663      9.16929         0.305488     -0.315860      0.504541
O       3.85620      1.85045      2.82137         0.047761      0.070485     -0.368365
O       3.83547      1.91069     15.85205         0.951557      0.005063     -0.191575
O       3.82718     13.43006      2.73120        -0.033780      0.186125     -0.276372
O       3.83444     13.39175     15.77580         0.056476     -0.459536     -0.170621
O       0.05671      1.87859      2.75078        -0.833708      0.063094      0.038484
O       0.01072      1.81095     15.71563         0.608725      0.164014      0.547064
O       0.00178     13.41440      2.79470         0.051761     -0.107329     -0.492822
O      15.30236     13.41248     15.80079         0.438746      0.240759      0.127615
O       3.83392      1.97121      7.11968        -0.665365     -0.038190     -0.173155
O       3.80534     13.52005      7.16352        -0.532354     -0.698858     -0.018977
O      15.33320      1.86666      7.16063         0.348946      0.492878     -0.306920
O      15.33330     13.36655      7.14852        -0.099082      0.064379     -0.397980
O       3.77702      1.96537     11.51125         0.519985     -0.554323     -0.405013
O       3.75685     13.41230     11.43671         0.970721     -0.115819     -0.004850
O      15.32003      1.89853     11.51115         0.128463     -0.254976     -0.386626
O      15.30725     13.29588     11.38175         0.306831      0.356490      0.313913
O       3.83905      5.68847      2.76350        -0.049202      0.227838     -0.336941
O       3.76687      5.69183     15.90628        -0.042923     -0.002631     -0.421930
O      15.32221      5.76691      2.72867         0.623763     -0.382176      0.055611
O      15.32415      5.60986     15.77389         0.070718      0.482368     -0.006499
O       3.76621      5.81009      7.07504        -0.266170      0.068378     -0.387069
O      15.24499      5.79051      7.13278         0.494786      0.017252     -0.263668
O       3.79498      5.79679     11.43102        -0.078120     -0.232127      0.181508
O       0.00974      5.63774     11.45513        -0.427362      0.287165      0.119990
O       3.84514      9.45311      2.78373         0.011126      0.608563     -0.695352
O       3.76892      9.50189     15.81671        -0.060248      0.348729     -0.170085
O       0.03996      9.63850      2.70775         0.338460     -0.299099     -0.047472
O      15.23613      9.41230     15.83629         0.870548      0.764779     -0.462411
O       3.82099      9.54082      7.03017        -0.100027     -0.033511     -0.048227
O      15.26438      9.69836      7.06817         0.617677     -0.527702     -0.275054
O       3.77076      9.55045     11.45370        -0.015873      0.041166     -0.218682
O      15.26432      9.56591     11.41842         1.882586      0.318750      0.064435
O       7.67641      1.89741      2.81841         0.045823      0.038761     -0.310713
O       7.65608      1.91880     15.79539        -0.474953     -0.097065      0.042356
O       7.68317     13.30656      2.87771         0.087646      0.228962     -0.727058
O       7.61644     13.33289     15.83119        -0.279295      0.269366     -0.086198
O       7.61769      1.90378      7.15589         0.220576      0.157889     -0.266300
O       7.54027     13.39517      7.04063         1.048160      0.011262      0.172935
O       7.69536      1.83309     11.48110        -0.209735      0.135401     -0.084766
O       7.65671     13.49322     11.54686        -0.547532     -0.274783     -0.735542
O       7.60322      5.68318      2.78734         0.599720     -0.025350     -0.585563
O       7.59221      5.69199     15.83095         0.416492      0.239232     -0.192804
O       7.67777      5.83116      7.14580        -0.340934     -0.214613     -0.096347
O       7.57211      5.80676     11.52640         1.891760     -0.596653     -0.308966
O       7.65005      9.62534      2.79715         0.407494     -0.175109     -0.529207
O       7.62571      9.42906     15.83924        -0.613966      0.519458     -0.402149
O       7.66047      9.65391      7.14239        -0.279077     -0.361104     -0.415899
O       7.71631      9.46909     11.45863        -0.269454      0.247588     -0.512254
O      11.55011      1.90871      2.77935         0.019348     -0.014233      0.203153
O      11.54198      1.79288     15.88638        -0.940022      0.661569     -0.266903
O      11.52254     13.33134      2.78678        -0.126714      0.482308     -0.262860
O      11.48251     13.40588     15.69181        -0.413307     -0.068160      0.194598
O      11.51470      1.85813      7.09763        -0.042278      0.215256     -0.312949
O      11.47487     13.42959      7.09781         0.000499      0.161837      0.101373
O      11.51398      1.87342     11.67131        -0.324990      0.361071     -0.972738
O      11.48370     13.31723     11.54335        -0.255075      0.629003     -0.198944
O      11.51444      5.83841      2.60719        -0.821639     -0.106080      0.285432
O      11.47093      5.62921     15.81502         0.035250      0.214807     -0.258527
O      11.46841      5.64800      7.17507         0.266011      0.641066     -0.474917
O      11.52415      5.62273     11.56881        -0.613350      0.315018     -0.502771
O      11.54403      9.45235      2.72423        -0.340843      0.284616     -0.029480
O      11.44572      9.52750     15.75830        -0.616620      0.203635      0.472076
O      11.49436      9.64471      7.12609        -0.420245     -0.088144     -0.144050
O      11.50897      9.43853     11.48970        -0.976394      0.546771     -0.335778
O       1.88960      3.79544      2.72274         0.157071      0.652944      0.284022
O       1.93074      3.78905     15.80423        -0.033482      0.166614     -0.132521
O       1.92934     15.32713      2.73802        -0.197050     -0.155029     -0.093773
O       2.02967      0.00707     15.78629        -0.473524     -0.284237      0.289660
O      13.40984      3.85771      2.85641         0.306117     -0.566970     -0.398621
O      13.44005      3.75379     15.90654        -0.293415      1.088503     -0.247331
O      13.43679     15.31709      2.74710         0.056064      0.304388     -0.137809
O      13.41712     15.31949     15.91112        -0.027285     -0.065121     -0.249543
O       1.82790      3.86635      7.07740         0.135004      0.240520     -0.212932
O       1.91106     15.35690      7.15470        -0.191698      0.066752     -0.592986
O      13.38940      3.84379      7.08469         0.310532     -0.117940     -0.192883
O      13.49917     15.33324      7.19116        -0.489876     -0.108783     -0.468481
O       1.91700      3.78055     11.35737        -0.138465      0.678037      0.296922
O       1.86975     15.31475     11.41256        -0.007941      0.079383     -0.012502
O      13.46275      3.71962     11.61118        -0.280581      0.897384     -0.498623
O      13.35120     15.30275     11.41590         0.231523      0.188787      0.265565
O       1.91433      7.64866      2.87343        -0.001899      0.234522     -1.224000
O       1.83789      7.59238     15.96564         0.411499      0.163088     -0.980313
O      13.55213      7.64374      2.81890        -0.405026      0.615066     -0.275766
O      13.27850      7.61098     15.71364         0.423366     -0.504453      0.416460
O       1.75596      7.69464      7.05507         0.170195     -0.422747     -0.372555
O      13.29503      7.71387      7.13367         0.311122     -0.421705     -0.456519
O       1.83065      7.66629     11.44511         0.053952      0.724833     -0.046019
O      13.47277      7.63112     11.57497        -0.284912     -0.914376     -0.522279
O       2.01487     11.53535      2.67383        -0.251440     -0.777307     -0.065748
O       1.85255     11.44261     15.89621        -0.061591      0.056377     -0.866827
O      13.49518     11.46429      2.72296        -0.282087     -0.115890     -0.087297
O      13.44121     11.47979     15.86335        -0.400354      0.217637     -0.353659
O       1.96908     11.48375      7.19023        -0.248549      0.195853     -0.609974
O      13.38371     11.48670      7.16992        -0.211387      0.926831     -0.311371
O       1.91362     11.55264     11.57584        -0.090340     -1.387253     -0.541966
O      13.36597     11.41398     11.58894         0.167868      0.351947     -0.545877
O       5.71940      3.75296      2.69536         0.019384      0.300546     -0.234314
O       5.73466      3.82205     15.92298        -0.029003     -0.677325     -0.709443
O       5.97362     15.28666      2.78405        -1.258089      0.149128     -0.595344
O       5.69491     15.28440     15.71618         0.415247      0.669913      0.032377
O       5.75773      3.85158      6.96359        -0.149271      0.456135      0.600884
O       5.68362      0.00866      7.08066         0.210833      0.083680      0.157272
O       5.75782      3.82660     11.44749        -0.090380     -0.060214      0.195452
O       5.67817     15.35906     11.34749         0.092063     -0.713751      0.353002
O       5.78070      7.60755      2.75159        -0.016314      0.128523     -0.565101
O       5.51302      7.61940     15.74964         0.896351      0.237440      0.093846
O       5.72934      7.73376      7.21957         0.269687     -0.410979     -0.532056
O       5.73909      7.61562     11.44680        -0.340735      0.884938      0.291720
O       5.74378     11.44262      2.75054        -0.392434      0.032674      0.097907
O       5.72369     11.44114     15.68871        -0.072593      0.234430      0.328026
O       5.68110     11.51886      6.85966        -0.210541     -0.553817      0.437421
O       5.71881     11.47957     11.35237        -0.002926     -0.029575      0.168463
O       9.58569      3.83456      2.69274         0.237355      0.386127     -0.284311
O       9.63206      3.80794     15.89813        -0.520556      0.066867     -0.043010
O       9.62907     15.28200      2.85140        -0.282870      0.307260     -0.295451
O       9.46562     15.29912     15.68587         0.330671      0.270132      0.505513
O       9.51332      3.81612      7.10909         0.118624      0.096755      0.154738
O       9.47094      0.01134      6.97992         0.269807     -0.614010      0.259470
O       9.54459      3.74204     11.61203         0.062502      1.422081     -0.748149
O       9.63732     15.32452     11.48558        -0.072335      0.296706      0.122483
O       9.48645      7.64130      2.71272         0.291854      0.052694     -0.013565
O       9.55176      7.62185     15.81836         0.070534     -0.067074     -0.596990
O       9.63970      7.65941      6.95697        -0.007382      0.072825      0.304242
O       9.63334      7.62285     11.38791        -0.158536     -0.502586      0.139911
O       9.70611     11.47546      2.69096        -0.428234     -0.508377     -0.063274
O       9.55323     11.44004     15.86166        -0.259558      0.433269     -0.159623
O       9.57373     11.49828      7.19700        -0.165582      0.418824     -0.027244
O       9.58160     11.49343     11.43626        -0.229790     -0.701552     -0.317866
