  # total energy = -7879.95216334 
CRSYTAL
PRIMVEC
    15.6000000000000000    0.0000000000000000    0.0000000000000000
     0.0000000000000000   15.6000000000000000    0.0000000000000000
     0.0000000000000000    0.0000000000000000    17.640000000000000
PRESSURE
-4.74101 -4.89328 -2.05625 -0.033224 0.244819 -0.000444
PRIMCOORD
320 1
Pb       3.81278      3.92277      4.30177         0.306242     -0.178322     -0.451800
Pb       3.82785      3.79095     17.54979        -0.429738      0.212765     -0.324718
Pb       4.05678      0.08931      4.35286        -0.318271      0.058387     -0.157305
Pb       3.95798     15.49452     17.48643        -0.626606      0.120249     -0.020562
Pb      15.59353      3.87329      4.34498         0.087927     -0.085624     -0.466322
Pb      15.49387      3.89689     17.61120         0.338448     -0.223888     -0.429066
Pb      15.56995     15.57810      4.39432         0.205247      0.179589     -0.143735
Pb       0.15505     15.50117     17.50394        -0.220644      0.083785     -0.180134
Pb       3.96515      3.79648      8.71159        -0.339356      0.461352      0.445009
Pb       3.86976     15.54708      8.75228         0.107707     -0.541823     -0.304835
Pb      15.55137      3.84386      8.71886         0.548310      0.054670     -0.136014
Pb       0.03270     15.42445      8.91503         0.000651      0.324143     -0.496028
Pb       3.77847      4.01500     13.18917        -0.124665     -0.052157     -0.389058
Pb       3.77256     15.53731     13.13832         0.156648      0.122324     -0.065201
Pb      15.47793      3.84399     13.12015         0.201254      0.182848      0.152713
Pb      15.58941     15.58579     13.12097         0.093730     -0.054845     -0.318208
Pb       3.81289      7.72527      4.34044         0.477298      0.552982     -0.067546
Pb       3.74315      7.72345     17.61540         0.251163      0.117405     -0.470806
Pb      15.47816      7.82633      4.42517        -0.052883      0.010410     -0.770746
Pb      15.50925      7.73126      0.02461         0.075607      0.358013     -0.426936
Pb       3.94011      7.75760      8.71370        -0.355924     -0.026134     -0.385178
Pb      15.58687      7.68484      8.77949         0.214957      0.044369     -0.416586
Pb       3.86096      7.73368     13.19876        -0.372921      0.121815     -0.596207
Pb      15.45361      7.82865     13.20302         0.324558     -0.487345     -0.109449
Pb       3.88299     11.72592      4.34393         0.536716     -0.227282     -0.562482
Pb       3.90802     11.65505     17.61805        -0.529407      0.150058      0.539498
Pb      15.53752     11.66281      4.46134        -0.205068      0.168233     -0.946764
Pb      15.53894     11.65351      0.09527         0.574117      0.008692     -0.692083
Pb       3.86258     11.63008      8.71063        -0.047498      0.369817     -0.193353
Pb      15.54457     11.68892      8.80048         0.382502     -0.184898     -0.134391
Pb       3.89198     11.73946     13.18478        -0.097029     -0.742126     -0.008440
Pb       0.01942     11.62697     13.14123        -0.204383      0.245263     -0.366376
Pb       7.76838      4.03615      4.32785         0.040543     -0.341667     -0.486107
Pb       7.72225      3.81308     17.50394         0.766947      0.422618     -0.313804
Pb       7.89019      0.07588      4.28972        -0.184686      0.026208      0.675384
Pb       7.88757     15.53716     17.58136         0.251126      0.025635     -0.482552
Pb       7.85294      3.85430      8.76295         0.072206      0.102279      0.324305
Pb       7.72529     15.48661      8.75556         0.300286      0.212849     -0.217268
Pb       7.67852      3.92573     13.08313         0.052740     -0.202481     -0.449282
Pb       7.69771     15.46554     13.22773         0.315815      0.230275     -0.255175
Pb       7.69566      7.95818      4.33807         0.356631      0.178919     -0.263668
Pb       7.80461      7.81851      0.01543        -0.231853     -0.275423     -0.540561
Pb       7.80020      7.77031      8.77195         0.170931     -0.032417     -0.356762
Pb       7.65310      7.70277     13.12942         0.693944      0.305106     -0.226326
Pb       7.77627     11.83697      4.35334        -0.111162     -0.707078      0.218250
Pb       7.73630     11.69312      0.05335         0.320337     -0.180249     -0.195140
Pb       7.68686     11.67674      8.89534         0.714372     -0.156405     -1.049950
Pb       7.86366     11.56910     13.23444        -0.112055     -0.398940     -0.283995
Pb      11.56210      4.00706      4.38271        -0.109633     -0.164377     -0.697343
Pb      11.73327      3.97632     17.53488        -0.433523     -0.099281     -0.340807
Pb      11.74108      0.08821      4.41383         0.297954     -0.264751      0.073207
Pb      11.66841     15.59992     17.57046         0.110346     -0.073130     -0.463471
Pb      11.67726      3.88284      8.79546         0.019058     -0.005044     -0.594146
Pb      11.67935     15.56986      8.86467         0.250807     -0.272883     -0.252329
Pb      11.54227      3.90251     13.22255         0.209068      0.121979     -0.034718
Pb      11.71685     15.47143     13.16341        -0.215000      0.300963     -0.133185
Pb      11.61586      7.81502      4.39454         0.077319      0.267597     -0.801454
Pb      11.56632      7.86710     17.63098         0.621602     -0.025438     -0.321841
Pb      11.72861      7.74321      8.76901        -0.100411      0.107163     -0.531115
Pb      11.64113      7.81462     13.20738        -0.190327     -0.293442     -0.089747
Pb      11.73772     11.94399      4.42683         0.031898     -0.308565     -0.434308
Pb      11.75315     11.74729      0.00300        -0.498270     -0.226191     -0.465072
Pb      11.68957     11.62833      8.70807        -0.111557      0.340315     -0.655793
Pb      11.76049     11.70559     13.09104         0.088300     -0.412770      0.053017
Ti       1.93210      1.94839      2.37144        -0.087055     -0.006699      0.644877
Ti       1.88827      1.96762     15.56619        -0.215817     -0.189525      1.313251
Ti       2.01303     13.68853      2.43464        -0.005983      0.061004     -0.783324
Ti       1.95168     13.59676     15.48285        -0.225603      0.063645      1.914388
Ti      13.63380      1.97769      2.35521         0.503980      0.133360      0.530938
Ti      13.58250      1.82925     15.54429         1.037445      0.574329      0.592912
Ti      13.78924     13.74141      2.26952        -0.585706     -0.701294     -0.261043
Ti      13.66994     13.56271     15.58473         0.109022      0.611839     -0.744408
Ti       2.07717      1.84801      6.76480        -0.948473     -0.084958      0.628593
Ti       2.10867     13.52170      6.58634        -0.307025      1.360287     -0.141412
Ti      13.70287      1.90083      6.95385         0.414940     -0.998093     -1.123848
Ti      13.81916     13.61424      6.77428        -1.053107      0.174839      0.156292
Ti       1.96050      1.95514     11.12401        -0.546677     -0.074163      0.548050
Ti       2.02322     13.54373     11.23590        -0.577526      0.143444     -0.275121
Ti      13.58584      1.87459     11.21217         0.486808     -0.184590     -0.349496
Ti      13.63672     13.58587     11.14470         1.156062     -0.361871      1.323915
Ti       1.93969      5.91908      2.38222        -0.675944     -1.152653     -0.420213
Ti       1.89808      5.86964     15.62227        -0.223479     -0.258382      0.593875
Ti      13.62280      5.80577      2.47596        -0.348897      0.449469      0.752709
Ti      13.69422      5.78995     15.56865        -0.606562      0.394823     -0.765890
Ti       1.94735      5.78292      6.75304        -0.382394      0.190381      0.907607
Ti      13.62154      5.83357      6.62531        -0.131051     -0.283905     -0.013674
Ti       1.77190      5.84755     11.08036         0.938014      0.223280      0.336531
Ti      13.56881      5.75335     11.13689         0.286611      1.129736      0.494497
Ti       1.94107      9.78180      2.39200         0.021229      0.366344      0.079497
Ti       2.00780      9.80550     15.63191        -1.044040     -0.628357      0.175921
Ti      13.68097      9.76849      2.30596        -0.393725     -0.257995      2.435265
Ti      13.71480      9.74509     15.59310        -0.750575     -0.659918      0.942929
Ti       1.86057      9.70895      6.75658         0.509606     -0.525192      0.591392
Ti      13.66022      9.64435      6.76233        -0.075920      0.898500      0.117376
Ti       1.89053      9.69746     11.14912         1.015413     -0.279057      0.694889
Ti      13.65627      9.67367     11.14865        -0.023028     -0.202191     -0.164488
Ti       5.94990      2.01859      2.28385        -0.324985     -0.091222      1.167903
Ti       5.87240      1.85146     15.66628        -0.536646      0.733116     -1.236310
Ti       5.92168     13.74534      2.46636        -0.820114     -1.070795      0.845277
Ti       5.84836     13.55097     15.61348         0.343084      0.875101     -0.888825
Ti       5.95348      1.97169      6.80414         0.008471     -0.918308     -0.927825
Ti       5.97730     13.65655      6.73317        -0.893508     -1.039114     -1.083089
Ti       5.78496      1.76788     11.24923         0.542682      1.087695     -0.156982
Ti       5.93357     13.46762     11.24291        -1.116408      0.599926      0.227341
Ti       5.84089      5.87594      2.22391        -0.426543     -0.080097      0.880303
Ti       5.80101      5.83221     15.62670         0.309424      0.581115      2.019881
Ti       5.84981      5.82375      6.78537         0.287056      0.510807      0.497342
Ti       5.76368      5.78659     11.16904         0.293443      0.058782      0.298515
Ti       5.83774      9.78207      2.36750        -0.273797      0.723774      1.210195
Ti       5.81500      9.80210     15.64060         0.356790     -1.820420      0.372681
Ti       5.83957      9.72242      6.80525         0.371259      0.418089     -1.442924
Ti       5.77499      9.70559     11.06287        -0.060360     -0.260559      3.026485
Ti       9.79487      1.83935      2.34027         0.041280      1.777733     -0.572496
Ti       9.76341      1.93097     15.51057         0.283868      0.631355      1.640060
Ti       9.78631     13.65420      2.37764         0.639505     -0.155233     -0.235908
Ti       9.80101     13.61808     15.50052        -0.327728      0.162683     -0.032974
Ti       9.83320      1.83674      6.85173        -0.313291      0.148787     -0.543826
Ti       9.78133     13.66437      6.77835         0.557069     -0.888515     -0.303297
Ti       9.71081      1.87038     11.19385         0.016509     -0.162368     -0.142986
Ti       9.75723     13.58695     11.18954        -0.191514     -0.109966      0.371132
Ti       9.66032      5.87490      2.30607         1.018026      0.084134     -0.000277
Ti       9.70993      5.94722     15.61172         0.000041     -1.804427      0.340721
Ti       9.71427      5.82526      6.81651         0.328161      0.680095      0.144681
Ti       9.74751      5.80688     11.08767        -0.824609      1.017085      1.364395
Ti       9.87057      9.85172      2.42275        -0.385320     -0.840724     -0.301120
Ti       9.65188      9.79090     15.62189         1.381213     -0.152457      0.270371
Ti       9.73608      9.77307      6.78977        -0.471970      0.108118     -1.040228
Ti       9.78336      9.72157     11.15926        -1.035763     -0.605316     -0.119052
O       1.92242      2.02851      0.64735         0.028511     -0.350634     -0.836519
O       1.85953      1.85236     13.88021         0.141910      0.224558     -2.724600
O       2.07045     13.74013      0.63552        -0.052274     -0.000009      0.280527
O       1.95503     13.50282     13.77145        -0.181013      0.183094     -1.358446
O      13.63666      2.06558      0.63574        -0.053122     -0.087079     -1.032316
O      13.67920      1.88933     13.80545        -0.262957     -0.306084     -1.310630
O      13.64905     13.63525      0.45471         0.108342      0.208101      1.357935
O      13.69474     13.51672     13.74707        -0.185752      0.017520      0.832598
O       2.02735      1.80919      5.03531         0.014631      0.560417     -0.162478
O       1.94901     13.67163      4.79753         0.351373     -0.634414      1.185486
O      13.85332      1.66740      5.20103        -0.580212      0.694835      0.712821
O      13.89995     13.69244      5.02524        -0.542496     -0.359101     -0.534502
O       1.91973      1.93615      9.39448         0.619040     -0.143113     -0.177199
O       2.13595     13.62858      9.51865        -0.180218     -0.022547     -1.568204
O      13.66473      1.77776      9.46787        -0.181110      0.401624     -0.681767
O      13.78432     13.56653      9.44953         0.123613     -0.217393     -2.114780
O       1.85652      5.80246      0.63982         0.106507      0.249456     -0.605706
O       1.89401      5.80243     13.91067         0.074321      0.014805     -1.058362
O      13.66867      5.71151      0.76517         0.256485     -0.046344     -1.894373
O      13.69778      5.87469     13.79891        -0.170170     -0.099248      0.101597
O       2.02266      5.78676      5.04217        -0.171714      0.095545     -1.525613
O      13.54948      5.92281      4.82796         0.070873     -0.283151      1.038008
O       1.71479      5.87398      9.32261         0.378224      0.004096     -0.437729
O      13.49349      5.76690      9.37743         0.140439      0.145706      0.073039
O       1.84564      9.73895      0.66407         0.211032      0.014897     -0.452807
O       2.09047      9.80187     13.86993        -0.472024     -0.050594      0.449979
O      13.70217      9.58417      0.60424        -0.123865      0.756553     -1.188100
O      13.71646      9.78954     13.84133         0.051724     -0.005793     -0.206894
O       1.92335      9.73637      5.03728        -0.033527     -0.073894     -0.942902
O      13.68890      9.74276      5.01852         0.009194      0.025778     -0.149155
O       1.89160      9.70952      9.42037        -0.153539     -0.221325     -1.040056
O      13.71830      9.58341      9.37725        -0.234791      0.404109      0.166035
O       6.00261      1.80555      0.54955        -0.366538      0.560983     -0.236323
O       5.86780      1.84932     13.88952        -0.096099     -0.119602      0.094080
O       5.90044     13.55636      0.75091         0.069652      0.434971     -1.586308
O       5.72211     13.52217     13.87285         0.851551      0.273013     -0.422166
O       5.96382      2.03476      5.05379        -0.181361      0.067490      0.421723
O       6.01216     13.59937      4.95607        -0.317353      0.283878     -0.088035
O       5.77075      1.81702      9.51713         0.185990     -0.112417     -0.694349
O       5.92613     13.48789      9.50685         0.022727     -0.051283     -0.869071
O       5.88000      5.84766      0.49371        -0.082121      0.091817     -0.153727
O       5.65329      5.90514     13.93331         0.372883     -0.419511     -1.943041
O       5.93005      5.90586      5.06758        -0.024695     -0.305529     -0.610550
O       5.91038      5.96428      9.46816        -0.561251     -0.172533     -1.280510
O       5.78552      9.97023      0.66068         0.376067     -0.230745     -1.198170
O       5.96562      9.84889     13.92013        -0.515351     -0.284685     -0.127022
O       5.67561      9.61261      5.03401         0.670247      0.066420      0.088556
O       5.78976      9.76340      9.35614         0.205310     -0.172687     -1.570538
O       9.79364      1.92235      0.58064         0.005100     -0.307889      0.238760
O      10.03453      1.85956     13.81876        -0.478732      0.248592     -1.673442
O       9.77181     13.77493      0.61747         0.013173     -0.508945     -0.164356
O       9.74347     13.66366     13.73186         0.434558     -0.128072     -0.060082
O       9.96688      1.85894      5.06858        -0.323494     -0.133535      0.489418
O       9.91223     13.78871      5.03389        -0.650892     -0.112480     -1.115011
O       9.84187      1.84059      9.44494        -0.504264     -0.015816      0.083519
O       9.64503     13.44362      9.47615        -0.110145      0.313977     -0.741446
O       9.62687      5.89747      0.56755         0.138195     -0.097790     -0.158281
O       9.78949      6.05066     13.88256         0.168952     -0.398226     -1.101032
O       9.74211      5.82696      5.07474        -0.143630     -0.273041     -0.827174
O       9.63766      5.81680      9.36667         0.649466     -0.037028     -1.163635
O       9.86802      9.88041      0.63952        -0.328034     -0.112511     -0.093745
O       9.68686      9.70430     13.87417        -0.246042      0.028248     -0.043414
O       9.70451      9.74678      5.01701         0.400445     -0.078444      0.081190
O       9.63650      9.78714      9.38654         0.674652     -0.107294      0.532529
O       3.97138      2.05887      2.83044         0.069553     -0.667140     -0.494360
O       3.80459      1.96622     15.98356         1.310720     -0.723769      0.570951
O       4.00130     13.74212      2.88546        -0.323289      0.181238     -0.114169
O       3.91491     13.62312     15.78042        -0.062455      0.154170      1.090799
O      15.55988      2.03696      2.84395         0.421828     -0.322215     -0.102603
O       0.00419      1.78352     15.92273        -0.629015      0.451064      0.668428
O       0.03785     13.63283      2.71252        -0.303439      0.269392     -0.166171
O      15.55929     13.49984     16.00164         0.565667      0.420462     -0.141673
O       3.97539      2.02256      7.30937        -0.269424     -0.582181     -0.635242
O       3.99504     13.48884      7.13635        -0.789728     -0.083829     -0.082715
O       0.09175      1.83199      7.40225        -0.362097     -0.231792     -0.598750
O       0.07600     13.71812      7.06234         1.070885     -0.404271      0.755412
O       3.87933      1.89381     11.59798        -0.122202     -0.104920      0.218806
O       3.90470     13.56792     11.62235         0.704804      0.493644      0.601968
O      15.58398      1.89081     11.49063         0.096994      0.354874      0.681170
O       0.10168     13.48107     11.47985        -0.947347      0.083528      0.659236
O       3.86950      5.67654      2.60288         0.369809      0.699654      0.630822
O       3.79945      5.88071     15.91961         0.613333      0.011512      0.942479
O      15.58255      5.83388      2.75379         0.206772      0.134989      0.778884
O      15.57195      5.72508     15.95236        -0.022182      0.336521      0.741410
O       3.90663      5.80027      7.05503         0.241784     -0.014666      0.748660
O      15.49714      5.82081      7.03187        -0.182425     -0.297274      0.143351
O       3.82253      5.81984     11.63033         0.434666      0.122696     -0.144709
O      15.54255      5.79753     11.51116        -0.909746     -0.073990      0.278562
O       3.87080      9.82872      2.70434        -0.270668     -0.160534      0.530310
O       3.84523      9.73025     16.19834         0.539644      0.163243     -0.497233
O       0.00096      9.71846      2.80676        -0.086935      0.315570      0.277969
O      15.56698      9.74464     16.15635         0.017874      0.924956     -0.554704
O       3.95726      9.70389      7.08982        -1.175958     -0.171640      1.001448
O      15.59056      9.68228      7.12658         0.273501     -0.156784      0.222562
O       3.83859      9.64843     11.52784         0.759079     -0.516117     -0.077750
O      15.56746      9.62749     11.66168         0.336932      0.961661     -0.244820
O       7.92736      2.03968      2.78397        -0.891326     -0.145401      0.053128
O       7.76171      1.94399     15.93087         0.747001     -0.070724      0.180081
O       7.83535     13.65120      2.83919         0.408433     -0.025907     -0.192492
O       7.89454     13.73384     15.87336        -0.956732     -0.461813      0.526979
O       7.83812      1.78882      7.14320        -0.033734     -0.029235      0.562963
O       7.80656     13.75356      7.07777         0.408824     -0.388740      0.900509
O       7.79641      1.94993     11.63949         0.151314     -0.451546      0.186861
O       7.80483     13.52083     11.58111        -0.293850      0.073643      0.480325
O       7.75839      5.94010      2.64251        -0.445722     -0.207642      0.586370
O       7.78265      5.88994     15.86525        -0.649990     -0.186842      0.506230
O       7.82639      5.83105      7.22954        -0.388167     -0.404276      0.189097
O       7.77019      5.79156     11.47425         0.156529      0.226110      0.938091
O       7.78615      9.86592      2.74782        -0.642594     -0.283576      0.134482
O       7.73565      9.74254     16.10537         0.563348      0.132808      0.215516
O       7.84866      9.65907      7.08601        -0.744780     -0.222816      0.645521
O       7.75972      9.77035     11.58634        -0.326348     -0.200635     -0.163583
O      11.75006      1.88495      2.83000        -0.708930     -0.020788     -0.014654
O      11.70531      2.01238     15.96267         0.036392     -0.447235      0.365237
O      11.70084     13.70240      2.78639         0.435648      0.203580     -0.076674
O      11.70676     13.67977     15.94371        -0.499403     -0.198939      0.160116
O      11.70189      1.75095      7.31779         0.646197      0.677034     -0.014013
O      11.65381     13.46309      6.99952         1.446885     -0.201636      1.055428
O      11.71143      1.78445     11.49285        -0.327310      0.509412      0.642152
O      11.72999     13.58424     11.32605        -0.681218     -0.134116      1.003195
O      11.67986      5.88863      2.61824        -0.926275      0.137720      0.999979
O      11.70487      5.85098     16.00598         0.651945     -0.144057      0.224197
O      11.65034      5.67442      7.08279         0.731355      0.327173      0.565596
O      11.71094      6.02394     11.58853        -0.587057     -1.067114     -0.186674
O      11.75457      9.83010      2.74803        -0.172987     -0.120456      0.234998
O      11.64844      9.67497     15.99305         0.227526      0.091529      0.197907
O      11.71916      9.69479      7.21965         0.033582      0.383530      0.188225
O      11.70105      9.66728     11.62502        -0.513804      0.410907     -0.348315
O       1.90923      3.86280      2.76747         0.031789      0.307354      0.799762
O       1.95542      3.85638     15.96991        -0.217985      0.497181      0.345556
O       1.94830      0.00857      2.71483         0.178801      0.735804      0.272233
O       1.90398     15.53186     15.86977         0.386633     -0.854124      0.471689
O      13.58821      3.89248      2.87214         0.070814     -0.260016      0.370024
O      13.72231      3.81516     15.76461        -0.318050      0.518274      1.014564
O      13.75580      0.03604      2.74024        -0.236898     -0.557430     -0.113950
O      13.60621     15.53729     15.91500         0.010866     -0.083512      0.228365
O       1.92842      3.88980      7.16827         0.035875     -0.629082      0.107320
O       2.23526     15.47203      7.01235        -0.453913      0.666425      0.556493
O      13.63072      3.82644      7.17805        -0.078169     -0.180540     -0.066531
O      13.57502     15.42714      7.23255         0.357332      0.663076      0.734543
O       1.94952      3.96775     11.49193        -0.081338     -1.531407      0.451810
O       1.92562     15.55117     11.49089         0.168960      0.600076      0.750295
O      13.54151      3.89702     11.58133        -0.009895     -0.627778      0.044276
O      13.72160     15.46963     11.46228        -0.048566      0.724577      0.817217
O       1.94797      7.79154      2.76689         0.278182      0.024713      0.243217
O       1.79977      7.86035     16.05353         0.585275     -0.608547      0.065526
O      13.55724      7.89503      2.82655         0.605513     -0.549100      0.185480
O      13.79005      7.78331     15.99375        -0.508147     -0.126236     -0.123043
O       1.79212      7.72913      7.17435         0.933056      0.371629      0.041618
O      13.60026      7.73789      7.03727        -0.229709     -0.654236      0.393625
O       1.87872      7.69856     11.59471         0.028257      0.610474      0.081809
O      13.66865      7.82447     11.53346        -0.003632     -0.861319      0.422165
O       1.96289     11.75378      2.62304         0.109390     -0.462242      0.803734
O       1.95253     11.69575     16.09567         0.022815      0.221769     -0.194019
O      13.69774     11.79894      2.77851         0.024132     -0.246295     -0.162207
O      13.49335     11.71403     16.06792         0.655729     -0.857669     -0.152909
O       1.96656     11.67786      7.11221        -0.235987     -0.247239      0.117282
O      13.86374     11.57400      7.23234        -0.969989      0.965972     -0.163150
O       2.04697     11.59166     11.45627        -0.451612     -0.052019      0.732173
O      13.58447     11.61259     11.55722         0.415443      0.082003      0.048969
O       5.89309      3.92916      2.75870         0.425716      0.142009     -0.247699
O       5.82409      3.87463     16.06584        -0.145364      0.025637     -0.146848
O       5.99032      0.13606      2.83250        -0.254412     -0.490221     -0.207102
O       5.92478     15.56706     16.08068        -0.539121     -0.682169     -0.108567
O       5.98721      3.82890      7.30758        -0.452464      0.626457     -0.241490
O       5.80622     15.48649      7.02314        -0.271462      1.760585      1.028449
O       5.88240      3.87039     11.45908        -0.403653     -0.241380      0.894525
O       5.93140     15.45655     11.54805        -0.374471      0.422264      0.587319
O       5.63435      7.81462      2.75034         0.852616     -0.371490     -0.350858
O       5.82545      7.82542     16.07134        -0.243088     -0.003479      0.060830
O       5.85883      7.72691      7.24663         0.043784      0.082632      0.180418
O       5.83849      7.72478     11.68852        -0.364816      0.774798     -0.469026
O       5.80509     11.75616      2.81740         0.227455     -0.185175      0.480687
O       5.87503     11.68481     16.03370        -0.019932      0.648514      0.470259
O       5.96479     11.67095      7.05638         0.041913     -0.542151      0.781234
O       5.63632     11.57768     11.64231         1.206661      0.171755     -0.560965
O       9.77122      3.92754      2.69516         0.090061      0.271816      0.610473
O       9.74676      3.89865     15.90944        -0.119964     -0.296462      0.158662
O       9.65817     15.57081      2.68506         0.487057      0.362673      0.361970
O       9.77188      0.03043     15.91265         0.135047     -0.309279      0.403474
O       9.76124      3.73615      7.26856        -0.138621      0.425780     -0.050186
O       9.80460     15.46905      7.36031        -0.177933      1.197785      0.158683
O       9.65473      3.91998     11.49442         1.076258     -0.666676      0.637473
O       9.77642     15.54608     11.63470        -0.441265     -0.188883     -0.179768
O       9.61946      7.91834      2.69727         0.691974     -0.816648      0.495415
O       9.76309      7.71666     16.13711        -0.606103      2.126708      0.167013
O       9.78063      7.75381      7.08911         0.234202     -0.252460      0.766609
O       9.69826      7.74523     11.54954        -0.022207      0.708532     -0.100258
O       9.86144     11.70712      2.82405        -0.519892      1.302485      0.172747
O       9.71310     11.69113     15.92672         0.082791      0.240680      0.161989
O       9.67049     11.72411      7.11681         0.051018     -0.793946      0.553571
O       9.63575     11.63819     11.64066         1.121354     -0.073760     -0.026882
