  # total energy = -7867.48919500 
CRSYTAL
PRIMVEC
    15.010000000000000    0.0000000000000000    0.0000000000000000
     0.0000000000000000   15.010000000000000    0.0000000000000000
     0.0000000000000000    0.0000000000000000    16.400000000000000
PRESSURE
18.7686 18.9548 9.24551 -0.010421 0.063483 -0.029152
PRIMCOORD
320 1
Pb       3.69306      3.84941      4.05150         0.510285     -0.585921      0.837869
Pb       3.81116      3.67495      0.08360         0.250486      0.545439     -0.146775
Pb       3.68341      0.00756      4.05665         0.191270      0.062340      0.356952
Pb       3.60779     14.96957      0.03060         0.891910     -0.330902     -0.673939
Pb       0.02836      3.65946      4.02808        -0.462692      0.534793      0.473014
Pb       0.09888      3.76753      0.03820        -0.864142      0.005303     -0.124496
Pb       0.08469     14.97866      3.96187        -0.287048     -0.773196      0.812979
Pb      14.93459     14.98319      0.03293        -0.179542     -0.102520     -0.233476
Pb       3.91395      3.73797      8.22566        -0.916011      0.322672     -0.029142
Pb       3.74586     14.90926      8.22590        -0.249302      0.599299      0.010844
Pb       0.07015      3.71697      8.21380        -0.583826     -0.246282      0.053019
Pb       0.06598      0.03113      8.26177        -0.236056      0.187012     -0.448317
Pb       3.65435      3.79782     12.31579         0.284987     -0.026770      0.058489
Pb       3.80326      0.02399     12.27113        -0.778208     -0.553684      0.609399
Pb      14.97779      3.63090     12.31499         0.560420      0.420679      0.035902
Pb      14.94775     14.98716     12.35983         0.568022      0.034856     -0.244107
Pb       3.66645      7.45738      4.00019         0.311358      0.282491      1.046620
Pb       3.69430      7.39424      0.01594         0.342669      0.320624     -0.126973
Pb      14.91358      7.42360      4.08222         0.024349      0.297415      0.375588
Pb       0.02922      7.49929     16.39794        -0.142746     -0.034464      0.139285
Pb       3.70057      7.44220      8.17671         0.171506      0.254688     -0.100302
Pb      14.93347      7.43687      8.21399         0.295792      0.394210     -0.119442
Pb       3.79618      7.58704     12.29287        -0.350041     -0.185595      0.365471
Pb       0.10563      7.47989     12.38276        -0.068902     -0.195785     -0.127720
Pb       3.68962     11.35871      4.03049         0.061936     -0.647787      0.815873
Pb       3.73274     11.25781      0.01225         0.003892     -0.013067     -0.586075
Pb      14.95122     11.32285      4.08322         0.470140     -0.406365      0.225223
Pb      14.95917     11.17014     16.37188         0.175647      0.381087      0.164418
Pb       3.77966     11.21184      8.21423        -0.350779     -0.537086     -0.368066
Pb      14.90842     11.23637      8.33512         0.377317     -0.418125     -0.621200
Pb       3.76304     11.32128     12.31156        -0.246649     -0.699655      0.717074
Pb      15.00678     11.22343     12.31078        -0.054313      0.014197     -0.366314
Pb       7.50937      3.59235      4.09710        -0.048723      0.867475      0.688443
Pb       7.47166      3.78210     16.34215        -0.299698      0.133955      0.752250
Pb       7.44209     14.99848      4.00215        -0.137197      0.007776      1.357391
Pb       7.46148      0.04086      0.06439        -0.204282     -0.315422     -0.407736
Pb       7.53757      3.78357      8.27812        -0.247263     -0.008028     -0.581578
Pb       7.56659     14.85966      8.26338        -0.890859      0.980691     -0.478392
Pb       7.55783      3.66284     12.23135        -0.724611     -0.033135      0.399732
Pb       7.50631     14.97767     12.35293         0.131733      0.109068     -0.039046
Pb       7.44820      7.52043      4.04074        -0.015642      0.150352      0.372912
Pb       7.46114      7.54757      0.08285         0.109546     -0.301997      0.249754
Pb       7.44182      7.60190      8.26166         0.174267     -0.834846     -0.718570
Pb       7.48744      7.34769     12.29137        -0.114281      0.576032      0.278693
Pb       7.49049     11.34130      4.04801        -0.365240     -0.745526      1.513350
Pb       7.53627     11.22267      0.06771        -0.115774      0.031635     -0.165414
Pb       7.47190     11.23585      8.31537        -0.258091     -0.331529     -1.325791
Pb       7.50248     11.15977     12.41406        -0.400905     -0.093415      0.030819
Pb      11.29887      3.70776      4.04128        -0.317782      0.338057      0.247694
Pb      11.13856      3.67472     16.36187         0.597604      0.150780      0.799149
Pb      11.22393      0.03614      4.08078         0.238600      0.104553      0.129816
Pb      11.08376     14.89778      0.05053         0.853069      0.866991      0.426807
Pb      11.17983      3.76108      8.13380         0.308628     -0.038380      0.217500
Pb      11.24854     14.99447      8.22726         0.436329      0.373238     -0.302450
Pb      11.31815      3.71646     12.36269        -0.391708      0.156432      0.113297
Pb      11.23846      0.00650     12.25324        -0.318005     -0.359722      0.129047
Pb      11.09800      7.43023      4.09087         0.649913     -0.004880      0.074331
Pb      11.21991      7.52672     16.35530        -0.299479     -0.018413      0.836017
Pb      11.17085      7.51586      8.26284        -0.021987     -0.479322     -0.524296
Pb      11.31427      7.53026     12.32995        -0.018978     -0.195322      0.727857
Pb      11.28148     11.27736      4.14448        -0.354805     -0.635377      0.357854
Pb      11.25188     11.26627      0.08333        -0.229483     -0.248853     -0.370055
Pb      11.16830     11.14922      8.20317         0.449010      0.269189     -0.061169
Pb      11.25881     11.28529     12.32369         0.648898     -0.137532     -0.245202
Ti       1.85237      1.90336      2.00849         1.081684     -0.656722      1.472243
Ti       1.87029      1.91087     14.47595        -0.136158     -0.755686     -1.177711
Ti       1.89264     13.06540      2.05039        -1.127704      0.265104      0.510097
Ti       1.82125     13.12578     14.41606         1.163596     -0.041743     -0.420367
Ti      13.12240      1.83964      2.12337        -0.339250     -0.246652     -0.215759
Ti      13.11205      1.92564     14.47521         0.141437     -1.909657      0.793328
Ti      13.01177     13.04236      2.07490         1.374627      1.575521      0.342137
Ti      13.13258     13.14303     14.47904        -0.333481     -0.331183     -0.448818
Ti       1.87367      1.89078      6.15499         0.788308     -0.551233      1.062756
Ti       1.79538     13.08638      6.21641        -0.074024      1.175616     -0.109633
Ti      13.10107      1.86525      6.20483        -0.111935      0.306547      0.152269
Ti      13.05327     13.12140      6.25061         0.640075      0.052063     -0.715861
Ti       1.91141      1.85665     10.30794        -1.401108     -0.785304      0.272970
Ti       1.88659     13.08046     10.27205        -0.040011      0.867025      0.445618
Ti      13.06245      1.85694     10.38311         1.013490      1.417163     -2.396998
Ti      13.16446     13.14320     10.27707        -0.257275     -0.634310      0.388104
Ti       1.86601      5.61059      2.12963         0.079026      0.172512     -0.897495
Ti       1.89050      5.60055     14.51298        -0.201137      0.207203     -1.631713
Ti      13.14392      5.58326      2.03390        -1.110786      0.139915      1.563983
Ti      13.11833      5.63450     14.56269        -0.031233     -0.197144     -1.076421
Ti       1.80449      5.61603      6.25594         1.880774      0.746428     -0.161032
Ti      13.03415      5.62588      6.23123         0.393970     -0.163585     -0.481892
Ti       1.86567      5.56171     10.34395         0.872575      0.324667      0.412032
Ti      13.10812      5.60954     10.38132         1.009756     -0.779585     -1.011663
Ti       1.81145      9.33545      2.08421        -0.330724      0.460999      0.123898
Ti       1.83530      9.38076     14.43820         1.303466     -0.627974     -0.724312
Ti      13.10447      9.36298      2.14122        -0.017531     -1.113706     -0.248112
Ti      13.10580      9.35904     14.48837        -0.064112      0.708349     -1.262358
Ti       1.84842      9.41843      6.21823        -0.099267     -0.952595     -0.060859
Ti      13.10239      9.34388      6.19661         0.244860      0.344222      0.177771
Ti       1.90179      9.30133     10.31699         0.039712      0.722593     -0.460681
Ti      13.12145      9.29242     10.36962         0.309394      1.268224     -0.041559
Ti       5.62109      1.89644      2.16596        -0.824512     -0.312994     -0.215427
Ti       5.61665      1.86976     14.44130         0.070292     -0.687718      0.224324
Ti       5.60596     13.14527      2.06435        -0.075568     -0.319031     -0.837619
Ti       5.65551     13.06153     14.42453        -1.349164      0.617970      1.102173
Ti       5.53751      1.81730      6.26206         1.203047      0.812766     -0.445343
Ti       5.54551     13.14578      6.25887         0.640418     -0.886107     -0.640486
Ti       5.53657      1.78609     10.33778         1.274641      1.214599     -0.546920
Ti       5.67297     13.06839     10.34131        -1.796676      0.029345     -0.152657
Ti       5.62403      5.64853      2.19441         0.657948     -0.545523     -0.045782
Ti       5.60291      5.60225     14.39977         0.114222      0.133506      0.292742
Ti       5.59406      5.63346      6.18726         0.212361      0.368133     -0.737268
Ti       5.60942      5.58317     10.31539        -0.014294      0.117169      0.098772
Ti       5.53646      9.43295      2.12050         0.865900     -0.426667      0.070473
Ti       5.64478      9.28537     14.53938        -1.232749      0.474820     -1.170818
Ti       5.64722      9.35491      6.13947        -0.701415     -0.043558      0.237424
Ti       5.69062      9.37601     10.39015        -1.291004     -0.723220     -0.506403
Ti       9.33426      1.87218      2.12214         1.294705      0.493925      0.064071
Ti       9.33915      1.88348     14.46953         0.432838     -0.755892     -0.770882
Ti       9.30885     13.12053      2.22530         1.090210      0.581317     -1.010443
Ti       9.37868     13.13116     14.47010         0.222788      0.415501      0.519791
Ti       9.28688      1.82979      6.26302        -0.042482      1.473508     -0.260616
Ti       9.30685     13.17891      6.23151        -0.222271     -1.506480     -0.603255
Ti       9.31099      1.82607     10.27896        -0.184847      0.122932     -0.026971
Ti       9.35808     13.00939     10.25485         0.977284      1.968991      0.636329
Ti       9.32770      5.61673      2.08826         0.682124      0.172723      0.976386
Ti       9.35341      5.67045     14.47794        -0.395955      0.201967      0.268330
Ti       9.26024      5.59314      6.14030         0.993346      0.364247      0.434208
Ti       9.44755      5.59219     10.43077        -0.033989      0.449207     -1.198370
Ti       9.29649      9.39836      2.12011         0.260011     -0.402326     -0.291889
Ti       9.36654      9.38939     14.39225        -0.228745     -0.064999      0.208014
Ti       9.38158      9.40744      6.22015        -1.053814     -0.844969     -0.802077
Ti       9.40071      9.36109     10.36635         0.007718     -1.221851     -0.090625
O       1.74958      1.93306      0.24655         0.283647     -0.439753     -0.288056
O       1.88290      1.94248     12.63729        -0.168699     -0.252583      0.636810
O       1.87611     13.08348      0.29048         0.102716     -0.026479     -0.593434
O       1.91392     13.17885     12.59202        -0.581744     -0.452492      0.823913
O      13.26001      1.85719      0.34545        -0.080418      0.042648     -0.920756
O      13.18549      1.94043     12.64461        -0.602838     -0.496875     -0.581857
O      13.00594     13.09682      0.26305         0.490468     -0.257014      0.762191
O      13.15302     13.23026     12.66910        -0.233708     -0.455684     -1.213228
O       2.02041      1.85940      4.37145        -0.515970      0.253066     -0.173999
O       1.95932     13.11774      4.37749        -0.375598     -0.130866     -0.223819
O      13.04126      1.83026      4.35647         0.623605     -0.074815      0.909980
O      13.06756     13.14315      4.35868        -0.067689     -0.047606      0.810240
O       1.90491      1.85908      8.52737        -0.087437     -0.157176     -0.722032
O       1.78955     13.08804      8.44338         0.163125      0.366640      0.309866
O      13.06394      1.95127      8.50982         0.157439     -0.396938      0.717061
O      13.17012     13.11818      8.48476        -0.122037      0.114322     -0.430028
O       1.94019      5.56833      0.28236        -0.344339      0.283655      0.873201
O       1.94258      5.57997     12.63998        -0.327955      0.034611      0.397148
O      13.15718      5.50432      0.28604        -0.162974      0.484299     -0.910704
O      13.00437      5.64889     12.71620         0.473226     -0.240845      0.435716
O       1.89921      5.57324      4.43914        -0.345983      0.215112     -0.413006
O      13.13397      5.62874      4.38337         0.084567     -0.204566      0.602667
O       1.94435      5.59468      8.58165        -0.414781      0.068843     -1.315743
O      13.02572      5.69412      8.56475         0.348039     -0.327762      0.034570
O       1.78468      9.35567      0.24796        -0.082419     -0.167870      1.053794
O       1.91851      9.27502     12.58282        -0.683615      0.333237      0.419915
O      13.21029      9.41948      0.29626        -0.269671     -0.249722      0.302901
O      13.05752      9.31760     12.62548         0.289798      0.290291      0.235568
O       1.73420      9.48426      4.41862         0.745162     -0.510149      0.176542
O      13.10730      9.30856      4.40341        -0.328237      0.401931     -0.482911
O       1.89010      9.41388      8.49302        -0.330275     -0.076861      0.927069
O      13.09487      9.43124      8.58045         0.138944     -0.217826     -0.236783
O       5.72101      1.93022      0.37011        -0.320125     -0.291805     -0.244585
O       5.72351      1.84975     12.64951        -0.178949     -0.022825     -0.149690
O       5.57424     13.11826      0.23577         0.165002     -0.153909      1.014769
O       5.54419     13.12503     12.63815         0.670605      0.045410     -0.454870
O       5.43664      1.74585      4.42382         0.715496      0.292562      0.255112
O       5.42812     13.08176      4.42320         0.724626      0.621041      0.509149
O       5.56011      1.88497      8.52426         0.165187     -0.041202      0.717428
O       5.64254     13.01401      8.49771        -0.109295      0.094576      1.003609
O       5.53572      5.49150      0.42637         0.099806      0.116515     -1.066184
O       5.70074      5.60771     12.60557        -0.222411      0.179582      0.147671
O       5.64260      5.63593      4.32732        -0.199568      0.219120      0.524339
O       5.60995      5.61572      8.51475         0.119446      0.049755      0.123374
O       5.67840      9.47297      0.29944        -0.439580      0.018216      0.234060
O       5.69277      9.27979     12.67994         0.108301     -0.014582      0.356902
O       5.72059      9.38469      4.33330        -0.699646     -0.270107      0.143902
O       5.73937      9.30850      8.53798        -0.238436      0.694233      1.008646
O       9.36482      1.77733      0.33168        -0.319557      0.719744     -0.044439
O       9.36441      1.90796     12.61794        -0.017854     -0.642039      0.771722
O       9.50470     13.16505      0.39362        -0.674251     -0.535233      0.079352
O       9.48646     13.12653     12.70378        -0.235600     -0.123841     -1.238076
O       9.33460      1.91166      4.44798        -0.067088     -0.308181     -0.465955
O       9.23607     13.17198      4.40048         0.628428     -0.018880     -0.235347
O       9.25487      1.92246      8.45277         0.435461     -0.586872      0.931871
O       9.35004     13.09778      8.45291        -0.181508      0.161096      0.645933
O       9.32244      5.79134      0.34155         0.083278     -0.711884     -0.976178
O       9.46356      5.73002     12.71251        -0.219882     -0.520170     -1.247970
O       9.46565      5.48104      4.35617        -0.588111      0.693277     -0.052629
O       9.52229      5.70081      8.61413        -0.420074     -0.452942      0.286479
O       9.19091      9.39004      0.26677         0.854079      0.245899      1.201621
O       9.40969      9.36384     12.54914        -0.079314      0.444201      0.892500
O       9.30782      9.49724      4.39200         0.424392     -0.520385      0.241693
O       9.24141      9.31012      8.51565         0.418521      0.302397      0.572364
O       3.72814      2.02417      2.30296        -0.041247     -0.494232     -0.204273
O       3.75494      1.85989     14.72069        -0.080448     -0.001195      0.300470
O       3.75397     12.94329      2.28631         0.040306      0.342839      0.013593
O       3.73409     13.06972     14.81634        -0.134427      0.252326     -0.335841
O       0.06889      1.79346      2.54828        -0.920138      0.262717     -0.608367
O      14.98108      1.94778     14.66989         0.486666     -0.000706      0.110946
O       0.02052     13.16318      2.31347        -1.487524      0.158633      0.264994
O       0.00005     13.08103     14.77731         0.297156     -0.518880      0.036408
O       3.76922      1.66032      6.59901        -1.745412      0.489283     -0.046561
O       3.70110     13.26979      6.56779        -0.149619     -0.744468     -0.085234
O       0.05124      1.91188      6.51680        -1.438634      0.772904     -0.218675
O      14.94650     13.08632      6.39719        -0.742723     -0.158515      0.200000
O       3.72800      1.91023     10.68787         1.164121     -0.009890      0.220454
O       3.74083     12.94194     10.74159         0.689311      0.550054     -1.295737
O       0.04037      1.80685     10.52843        -0.662764     -0.170747      0.529898
O       0.01204     13.23707     10.60671        -0.127141      0.024726      0.104935
O       3.74352      5.58855      2.40499        -0.319939      0.071412      0.268285
O       3.70989      5.66172     14.74729         1.522440     -0.094349     -0.073707
O       0.00979      5.67245      2.32527        -0.517088     -0.367931      0.290509
O      15.00542      5.58605     14.76817        -0.933731     -0.217878     -0.135137
O       3.76221      5.74086      6.49830        -0.880561      0.084295      0.051842
O       0.02835      5.65915      6.61696        -1.820930     -0.676810     -0.095358
O       3.77879      5.45614     10.54084         0.168871      0.338348      0.601989
O       0.07590      5.76284     10.60668        -1.856586     -0.174468      0.303600
O       3.69105      9.45966      2.42170         0.111499     -0.318541     -0.185438
O       3.66448      9.17989     14.74785         1.294058      0.428857      0.120952
O       0.00686      9.27295      2.52339        -0.715091      0.245621     -0.698429
O      14.99087      9.31458     14.66922        -0.420839      0.208573      0.029909
O       3.71483      9.33931      6.66139         0.564360      0.416410     -0.869184
O      14.92334      9.41726      6.49982         0.430123      0.169532      0.409823
O       3.79965      9.46800     10.73407        -0.202768      0.301346     -0.705382
O      14.99879      9.27819     10.61453         0.377376     -0.156506      0.253909
O       7.50396      1.76090      2.50586        -0.474235     -0.152296     -0.225058
O       7.51610      1.84477     14.86205        -0.552421      0.491505     -0.645642
O       7.50882     13.32932      2.36338        -1.182745     -0.369845     -0.025574
O       7.47605     13.14312     14.80649         0.617758     -0.522834     -0.482332
O       7.41905      1.99204      6.59819        -0.285146     -0.421575     -0.415837
O       7.47811     13.16573      6.58788        -0.858334     -0.414323     -0.118250
O       7.47238      1.65960     10.66495        -0.456970      0.768218     -0.126774
O       7.48026     13.07714     10.65377         1.135406      0.242381      0.019945
O       7.48249      5.72680      2.36176         0.478407      0.057202      0.267043
O       7.49939      5.63139     14.77761        -0.553081     -0.209966     -0.255712
O       7.47199      5.63667      6.59042        -0.155168     -0.068904     -0.089374
O       7.55673      5.71871     10.59248        -0.253911      0.005548      0.187645
O       7.44811      9.26255      2.38984         0.063166      0.173886     -0.123371
O       7.48250      9.37667     14.78472         0.571840      0.308897     -0.634645
O       7.47411      9.31901      6.46284         0.449162      0.089698      0.396850
O       7.54350      9.30451     10.71493         0.084955     -0.092316     -0.145455
O      11.24211      1.94532      2.41622        -0.392807      0.395718     -0.141912
O      11.21067      1.75078     14.86941         0.951461      0.213043     -0.840039
O      11.19321     12.89064      2.47433         0.427221      0.456720     -0.244743
O      11.30663     13.25931     14.77763        -1.383567     -0.584762     -0.501717
O      11.16549      1.87021      6.44763         0.833377     -0.240149      0.330264
O      11.17033     13.24575      6.51539         0.488815     -0.124084      0.050667
O      11.18563      1.93954     10.54938         0.279224     -0.150508      0.454362
O      11.27554     13.07121     10.45355        -0.748876      0.474951      0.689192
O      11.25926      5.51181      2.30602         0.068970      0.019977      0.184165
O      11.13814      5.57939     14.86269         2.386027      0.524985      0.051863
O      11.23941      5.60322      6.44547        -0.780842      0.062318      0.202725
O      11.31445      5.32664     10.66407        -0.688195      0.406916      0.253465
O      11.21847      9.45066      2.32556        -0.077404      0.501845      0.090717
O      11.19198      9.33745     14.71389         0.697517      0.143790      0.223054
O      11.19956      9.40395      6.59620         0.117358     -0.397278     -0.124709
O      11.24906      9.55095     10.55063         0.334777     -0.365093      0.226264
O       1.87093      3.79010      2.46494        -0.708009     -1.189771     -0.317259
O       1.91355      3.74376     14.82759        -0.027924     -0.263515     -0.374538
O       1.92111     15.00498      2.26534         0.403709      0.142795      0.155699
O       1.86613     14.97787     14.75900        -0.245097      0.710426      0.050664
O      13.22941      3.65486      2.35291         0.294864      1.968274      0.507442
O      13.06462      3.72301     14.75156        -0.316418      0.643801     -0.081133
O      12.90293      0.00178      2.24421         0.653760     -1.861660      0.708097
O      13.34632     14.93405     14.64461        -0.446784      2.416487      0.407140
O       2.07064      3.78414      6.52219        -0.614200     -1.134890     -0.052457
O       1.67797      0.01022      6.37789         0.572579     -0.313013      0.444625
O      13.01575      3.75120      6.58122         0.901298     -0.124617     -0.503478
O      13.09495      0.04155      6.56682         0.113773     -0.652136      0.015321
O       1.90308      3.69530     10.62448        -0.574196      0.548269      0.214817
O       2.03861     14.95450     10.65353        -0.217208      0.410543     -0.411068
O      13.30038      3.72997     10.63199        -0.020637      0.267345      0.338151
O      13.11354      0.06213     10.49573        -0.382382     -1.808917      0.741187
O       1.83104      7.42828      2.48425         0.605735      1.485458     -0.282775
O       1.79765      7.43810     14.73877        -0.343394      0.671488      0.176970
O      13.03910      7.49768      2.37903         0.177341     -0.646643     -0.135272
O      13.16615      7.52866     14.78691        -0.492607     -1.538140      0.229104
O       1.79572      7.52686      6.51588         0.074103     -0.125636      0.086350
O      13.05790      7.51724      6.56712         0.261148     -0.578377      0.001687
O       2.05886      7.48117     10.58709        -0.160612     -0.039354      0.123626
O      13.00708      7.44553     10.61855        -0.237163      0.738557      0.232192
O       1.80570     11.21724      2.41287        -0.268017     -0.218466     -0.325082
O       1.84727     11.19705     14.73423         0.072312      0.780176     -0.209217
O      13.19240     11.19965      2.35757         0.154449      0.960613      0.338551
O      13.08965     11.20066     14.70951         0.018403      0.720179      0.024824
O       1.82429     11.27743      6.51041         0.455745     -0.249434      0.171013
O      12.93567     11.22990      6.52639         0.322440      1.062445     -0.212124
O       1.76522     11.26069     10.53987        -0.209638     -0.925401      0.491305
O      13.21177     11.28360     10.65377         0.303148     -0.224317      0.160067
O       5.76348      3.69964      2.45492        -0.254912      0.556627      0.074903
O       5.55785      3.78821     14.82429         0.438728     -0.818058     -0.457014
O       5.52952     14.94870      2.43052        -0.216778      0.990859     -0.179135
O       5.62646      0.01276     14.69765        -0.023540     -0.367947      0.164467
O       5.48573      3.83597      6.49308         0.210436     -2.396491     -0.035176
O       5.62133     14.98762      6.66401         0.663518     -0.271955     -0.222252
O       5.67644      3.70773     10.65462         0.609551     -0.295378     -0.192191
O       5.52207     14.93701     10.54823         0.029804     -0.315684      0.242714
O       5.59248      7.52067      2.28785        -0.619123      0.523174      0.377587
O       5.61919      7.42572     14.91652         0.074277      0.132817     -0.373283
O       5.59542      7.48272      6.45965         0.311284      1.059225      0.224545
O       5.50522      7.49656     10.65163         0.711805     -0.128522     -0.237334
O       5.78511     11.30205      2.47181        -0.368229     -0.393825     -0.743997
O       5.54307     11.15772     14.61373         0.191334      0.908787      0.262642
O       5.61991     11.21669      6.49151        -0.266375      0.727848      0.341780
O       5.73932     11.24311     10.76077         0.054251     -0.687783     -0.233950
O       9.22328      3.77361      2.43537         0.147611     -0.824240     -0.601004
O       9.42714      3.72672     14.71885        -0.459130      0.423264      0.102910
O       9.49307      0.04058      2.35395         0.010780     -1.161793      0.617663
O       9.31346     14.98753     14.81444        -0.124090      0.176825     -0.508644
O       9.27332      3.76101      6.52489         0.430647     -0.080394      0.351749
O       9.24534     15.00805      6.45753         0.068797      0.274913      0.637144
O       9.26270      3.70808     10.67717        -0.031077     -0.155553     -0.331725
O       9.32477     14.96487     10.67618         0.779898     -0.644248     -0.381609
O       9.44728      7.54468      2.46011        -0.179968     -0.602528     -0.064813
O       9.35438      7.56820     14.84270        -0.100972     -0.519620     -0.752628
O       9.38574      7.44486      6.44219         0.105395      0.951410      0.027235
O       9.67484      7.46943     10.68876        -0.680184      0.487105     -0.533462
O       9.15016     11.26596      2.45624         0.429394     -0.045348     -0.703033
O       9.43675     11.29768     14.84082        -0.248243     -0.804109     -0.570952
O       9.31823     11.26253      6.48922         0.150426      0.187269      0.374169
O       9.42690     11.22481     10.58213        -0.868779      0.335594      0.305139
