  # total energy = -7878.10911956 
CRSYTAL
PRIMVEC
    15.2000000000000000    0.0000000000000000    0.0000000000000000
     0.0000000000000000   15.2000000000000000    0.0000000000000000
     0.0000000000000000    0.0000000000000000    17.000000000000000
PRESSURE
7.93955 7.63917 4.40599 -0.297361 0.034219 -0.109916
PRIMCOORD
320 1
Pb       3.84952      3.61512      4.14071        -0.079585      0.449151      0.101232
Pb       3.74009      3.68253     16.84871         0.075776      0.340907      0.251308
Pb       3.84868     15.09042      4.10332        -0.385522     -0.219903      0.519910
Pb       3.59134     15.18330     16.87794         0.621137     -0.049672      0.762711
Pb       0.01390      3.50826      4.14892        -0.026159      1.101790      0.547593
Pb      15.13284      3.85190      0.01766        -0.192980     -0.613242      0.158691
Pb      15.12867     15.04128      4.29261         0.666445      0.134152     -0.609728
Pb      15.02158     15.19622      0.12278         0.345842      0.400756     -0.477909
Pb       3.64010      3.96516      8.59068         0.611433     -0.620663     -0.711088
Pb       3.80757     15.11549      8.55460        -0.185322      0.617517     -0.873821
Pb       0.09703      3.78030      8.51673        -0.173989      0.268435     -0.431743
Pb      15.18486     15.19553      8.23923         0.557185     -0.368817      0.840045
Pb       3.72192      3.81910     12.68386         0.057402     -0.123344     -0.356192
Pb       3.67611      0.09899     12.78618        -0.337748     -0.158678     -0.245592
Pb      15.03439      4.04370     12.71574         0.177555     -1.254421     -0.106356
Pb      15.11491      0.14710     12.76589         0.251580     -0.797668     -0.023146
Pb       3.84718      7.48240      4.14474        -0.066217     -0.192584      0.601187
Pb       3.65518      7.53674     16.79327         0.620287     -0.843521      0.455485
Pb       0.00883      7.58710      4.29513        -0.268235     -0.793049     -0.436893
Pb      14.93064      7.53774      0.05599         0.755429     -0.228557     -0.351752
Pb       3.84212      7.62682      8.53031         0.200549     -0.377668     -0.403064
Pb       0.13462      7.63015      8.45451        -0.260937     -0.070093     -0.348744
Pb       3.76967      7.69621     12.77943         0.048540     -0.474828     -0.076310
Pb       0.04787      7.70604     12.74679        -0.752320     -0.176347      0.313895
Pb       3.94296     11.16309      4.13626        -0.205814      0.796663      0.646947
Pb       3.73970     11.38145     16.99501         0.131659     -0.177620     -0.244782
Pb       0.16484     11.25206      4.17135        -0.214905      0.408948      0.237959
Pb      15.07350     11.36319      0.05829         0.443617     -0.038142     -0.583018
Pb       3.82427     11.39879      8.54328         0.614366     -0.186056     -0.425331
Pb       0.19926     11.45974      8.32090        -1.158061     -0.306303      0.430321
Pb       3.79650     11.52124     12.75499        -0.530630     -0.062926     -0.528058
Pb       0.04972     11.44917     12.89040         0.096171      0.430919     -0.688997
Pb       7.55934      3.76037      4.38215         0.207117      0.260652     -0.668898
Pb       7.55130      3.73014     16.86627        -0.464567      0.073244      0.062208
Pb       7.61054     15.09512      4.21760        -0.154118     -0.151004      0.435592
Pb       7.58816      0.00685     16.85636         0.089391     -0.656497      0.361926
Pb       7.35164      3.72654      8.77974         0.457241      0.307286     -0.661234
Pb       7.61999      0.02352      8.61840        -0.045558     -0.139638     -0.673644
Pb       7.67224      3.90436     12.77165        -0.500996     -0.962243     -0.310237
Pb       7.48406     15.01062     12.79124         1.015010      1.117575     -0.149444
Pb       7.62428      7.54352      4.04383        -0.482933     -0.725847      1.519866
Pb       7.74220      7.62761      0.00798        -0.482007     -0.104951     -0.513601
Pb       7.48460      7.58082      8.52825         0.381155     -0.526633      0.112786
Pb       7.49388      7.65232     12.66076         0.852673      0.188419      0.543079
Pb       7.63447     11.40739      4.33979        -0.157945     -0.154258      0.145094
Pb       7.49035     11.36462     16.91797         0.481957      0.395807      0.110768
Pb       7.70377     11.36302      8.69371        -0.396439      0.117331     -0.826215
Pb       7.62857     11.49283     12.78892         0.316203     -0.537987     -0.783669
Pb      11.21734      3.76772      4.43928         0.391546     -0.027394     -0.594367
Pb      11.24130      3.70511     16.98119         0.854387     -0.233386     -0.082482
Pb      11.29993     15.15558      4.25658         0.522754     -0.136152      0.008864
Pb      11.33290      0.15263      0.11166         0.110389     -0.158068     -0.706247
Pb      11.40876      3.87863      8.52116        -0.276127     -0.552692     -0.384321
Pb      11.52389      0.01690      8.36319        -0.516034     -0.222962      0.469351
Pb      11.34790      3.84347     12.66871         0.582711     -0.355047     -0.098205
Pb      11.44434     15.18904     12.58841        -0.694052      0.308618      0.332170
Pb      11.26612      7.51573      4.30865         0.553901     -0.311819     -0.257236
Pb      11.44003      7.63701     16.99535        -0.662733     -0.153178      0.425568
Pb      11.40045      7.58473      8.62269        -0.212713     -0.226036     -0.890658
Pb      11.52510      7.75744     12.82193        -0.117861     -0.485006     -0.612221
Pb      11.28430     11.33696      4.27077         0.288957      0.210884      0.246153
Pb      11.36685     11.41986      0.01234        -0.724279     -0.234707     -0.073224
Pb      11.48628     11.33833      8.33286        -0.089692      0.678083      0.286620
Pb      11.44301     11.53514     12.55178        -0.300453     -0.088172      0.859481
Ti       1.92577      1.81607      2.25763        -0.662311     -1.469726     -0.005397
Ti       1.72544      1.84320     14.96978         0.404622     -0.206632      0.671660
Ti       1.97457     13.17205      2.11003        -0.014152      1.411129      2.608302
Ti       1.83760     13.22786     15.04280        -0.720848     -0.112559     -0.998300
Ti      13.25644      1.82823      2.32562        -0.489240      0.528193     -0.728017
Ti      13.30505      1.89717     14.88154        -1.005496     -0.563501      1.279656
Ti      13.33869     13.21026      2.25014        -0.869174      0.515269      1.525286
Ti      13.19556     13.25441     15.01367         1.075583      1.330076      0.533357
Ti       1.93574      1.84037      6.37775         1.020525      0.078047      0.249306
Ti       1.98692     13.21807      6.34592         0.595727      1.160014     -0.127329
Ti      13.34984      1.94395      6.58621        -1.260158      0.415414     -0.199115
Ti      13.33112     13.26078      6.37536        -0.561369     -0.845142      0.505468
Ti       1.76385      1.90816     10.68650         0.493463     -0.273449      0.519187
Ti       1.88533     13.36642     10.74396        -0.832289     -0.430637      1.412127
Ti      13.32976      1.85692     10.63005        -0.977375      1.696254      0.443090
Ti      13.37840     13.37762     10.63710         0.191303     -0.849270     -1.172245
Ti       1.89439      5.62164      2.20758        -0.672237     -0.818176      1.183848
Ti       1.81116      5.56940     14.89749        -0.159274      0.024172      0.103332
Ti      13.31579      5.57899      2.24602        -0.557760     -0.150796      1.587764
Ti      13.17105      5.62414     14.99060         2.245858     -0.192473     -0.292093
Ti       1.93852      5.66578      6.33705         0.744729     -0.627773     -0.485540
Ti      13.37858      5.70165      6.40945        -0.204146     -0.785780      1.056215
Ti       1.85138      5.77523     10.77001         0.976755     -1.632974      0.528908
Ti      13.31315      5.80337     10.65371        -0.250658     -0.661175     -0.025958
Ti       1.90141      9.36006      2.13116         0.753556      0.317211      2.210572
Ti       1.80549      9.40903     15.02223        -0.362587      0.410973      0.930968
Ti      13.23748      9.46059      2.34205        -0.270615     -1.448022     -0.205706
Ti      13.22545      9.52630     15.03700        -0.097812     -0.672133      0.161194
Ti       1.97574      9.43533      6.40639         0.016994     -0.017971      0.152045
Ti      13.25716      9.39969      6.47659         1.031814      0.854890      0.605505
Ti       1.92000      9.53535     10.80685        -0.249879      0.842005      0.476134
Ti      13.31972      9.59977     10.63653         0.797698     -0.232350      1.282915
Ti       5.73921      1.78863      2.18553        -0.264126      0.459748     -0.726714
Ti       5.60961      1.76567     14.99003         0.366588      0.696230     -1.058733
Ti       5.76563     13.16574      2.22645        -0.023196      0.146772     -0.936498
Ti       5.59656     13.22672     14.90289         0.757810      0.298970      1.702092
Ti       5.70070      1.85108      6.53590        -1.182904      0.670901      0.957193
Ti       5.75091     13.25215      6.55686         0.233132     -0.196045      0.158199
Ti       5.61095      1.82979     10.76094         0.349805      2.233618      0.094003
Ti       5.70550     13.38314     10.71707        -0.521114     -1.140469     -0.862515
Ti       5.64551      5.64529      2.06640         0.632526     -0.763566     -0.505345
Ti       5.71214      5.62974     14.84765        -0.462410      0.395474      1.241571
Ti       5.73801      5.61015      6.46310         0.007755      0.884335      1.811243
Ti       5.74415      5.74425     10.90963        -1.439757     -0.891837     -0.740171
Ti       5.66919      9.37136      2.17487         0.481430      0.635711     -0.123724
Ti       5.64483      9.47737     14.88527        -0.081257     -0.590767     -0.005862
Ti       5.74897      9.42806      6.51095        -0.270838      0.562638      0.010290
Ti       5.70976      9.58485     10.80587        -0.138841      0.262290      0.252458
Ti       9.46619      1.78536      2.30562         0.728859      0.625066     -0.057201
Ti       9.45936      1.87779     14.83469         0.682830     -1.363592     -0.178527
Ti       9.49032     13.21678      2.19748         0.018477     -0.521787      0.307400
Ti       9.51639     13.31397     14.91687        -0.266575     -0.141480      1.019892
Ti       9.42915      1.87775      6.55246         0.536037      0.761608      0.500135
Ti       9.50989     13.31243      6.53891        -0.587420     -0.692915      0.795655
Ti       9.46442      1.87235     10.66163        -0.350791     -0.217533      0.417793
Ti       9.53309     13.27554     10.59997         0.433078      0.401139     -0.262693
Ti       9.48604      5.59915      2.12685         0.211275     -0.611090      0.248006
Ti       9.48243      5.72087     14.95145        -0.272710      0.289171      0.181898
Ti       9.54376      5.69702      6.59278        -1.561875     -0.589504      0.526115
Ti       9.53909      5.66219     10.78221        -0.103850      0.418786     -0.477370
Ti       9.40058      9.43562      2.33382         1.064051      0.612266     -0.659687
Ti       9.40146      9.53739     14.84468         0.764727     -0.435462      1.614634
Ti       9.45482      9.45986      6.60878        -0.048724      0.157243     -0.617821
Ti       9.58986      9.42673     10.71178        -1.806443      1.387957     -0.462819
O       1.78464      1.63759      0.51686         0.252316      0.469416     -1.183266
O       1.73042      2.03459     13.24563         0.090544     -0.611322     -0.976533
O       1.94020     13.18008      0.39137        -0.254462     -0.004672     -1.678254
O       1.87636     13.22437     13.22948        -0.076020     -0.130231      0.583303
O      13.22521      1.84643      0.52250        -0.175721     -0.432848      0.253624
O      13.30956      1.91692     13.11933        -0.217603      0.017938     -0.256213
O      13.34086     13.14562      0.49203        -0.189443      0.187491     -0.566912
O      13.15488     13.36998     13.27449         0.307585     -0.482432     -0.871192
O       2.08107      1.76571      4.58737        -0.362479      0.416394     -0.026825
O       2.08883     13.25771      4.56410        -0.422074     -0.577379      1.049254
O      13.09410      1.96346      4.85891         0.482359     -0.083879     -1.192086
O      13.25332     13.23218      4.63807         0.463416      0.123110     -1.067813
O       1.74951      1.92229      8.93401         0.063199     -0.395063     -0.701136
O       1.76332     13.26055      9.00267         0.378835      0.234032     -0.958458
O      13.47082      1.80874      8.88680        -0.262633      0.024940     -1.064073
O      13.34629     13.31957      8.81764         0.332425     -0.082774      0.854229
O       1.93776      5.54077      0.46388        -0.427678      0.266143     -1.128290
O       1.74241      5.55690     13.10707         0.320003     -0.082484      0.093674
O      13.21049      5.55434      0.47588         0.586708      0.415554     -0.682931
O      13.29434      5.59786     13.18604        -0.600789      0.536457      0.401922
O       1.95285      5.56356      4.54122         0.392939      0.363427      0.946295
O      13.15036      5.63167      4.68130         0.468411     -0.110341     -0.108046
O       1.90411      5.71623      8.98812        -0.171919      0.507697      0.060411
O      13.42750      5.98821      8.87494        -0.422627     -0.503988      0.769159
O       1.97916      9.46316      0.42596        -0.207013     -0.571936     -1.577033
O       1.76811      9.53560     13.28124         0.173614     -0.143054     -1.156567
O      13.28433      9.36936      0.50379        -0.242527      0.280881      0.712880
O      13.28229      9.57847     13.27533        -0.284844     -0.322196     -0.166611
O       2.05729      9.57559      4.63394        -0.435095     -0.501506      0.022990
O      13.22235      9.33410      4.75192         0.292812      0.179178     -2.029064
O       2.00867      9.43123      9.06712        -0.275758      0.217227     -0.874333
O      13.36053      9.52547      8.90592        -0.086923     -0.318935     -0.641752
O       5.69631      1.86492      0.36980         0.238002     -0.326477      0.545581
O       5.61416      1.66408     13.19398         0.252389      0.590354      0.496366
O       5.83959     13.15248      0.42283        -0.207519      0.080241      0.336987
O       5.79839     13.20645     13.14695        -0.583186      0.222393     -0.818060
O       5.63145      1.92217      4.77385         0.335276      0.002417     -1.021167
O       5.72685     13.22847      4.76170         0.236025     -0.099951      0.207979
O       5.54297      1.91342      8.97015         0.274126     -0.332801      0.208441
O       5.72791     13.43335      8.91223        -0.509938      0.030763      1.053787
O       5.64364      5.62858      0.25524         0.231170      0.058683      0.989799
O       5.86767      5.60763     13.07862        -0.491413      0.148934      0.061816
O       5.71190      5.64020      4.73933         0.061491     -0.113268     -1.643915
O       5.69160      5.76411      9.13485        -0.114684     -0.035404     -0.468297
O       5.62724      9.34767      0.41023         0.059822      0.040035     -0.582714
O       5.75867      9.67614     13.09893        -0.370819     -0.356092      0.717649
O       5.72599      9.32605      4.72112        -0.026905      0.292887      0.318325
O       5.66038      9.58259      9.06310        -0.272969     -0.707933     -1.053011
O       9.53756      1.75641      0.50852         0.033766      0.363681     -0.590962
O       9.49899      1.62906     13.08922        -0.133831      0.925247      0.172784
O       9.38183     13.25611      0.44625         0.181127     -0.484463     -0.567262
O       9.61897     13.31581     13.15637        -0.416904     -0.176392     -0.466686
O       9.42822      1.80750      4.72395         0.094858     -0.103833      0.303580
O       9.42949     13.22113      4.76347        -0.112334      0.303257     -0.525066
O       9.34394      2.01126      8.90022         0.522508     -0.198269     -0.160254
O       9.57670     13.20682      8.79555        -0.072030      0.126448      1.327236
O       9.36205      5.61692      0.30035         0.412099     -0.171758      0.817343
O       9.43638      5.76993     13.17936         0.465066     -0.127499     -0.035322
O       9.39138      5.61395      4.82705         0.308132      0.330776     -0.939037
O       9.55105      5.52596      9.01570         0.037670      0.528383     -0.140907
O       9.53287      9.47477      0.56148        -0.514182     -0.145692      0.125267
O       9.50406      9.54228     13.11289         0.078832     -0.178184     -0.825974
O       9.47506      9.42660      4.76897        -0.078898     -0.239109      0.477585
O       9.60694      9.66716      8.89582        -0.169628     -0.628143      1.032601
O       3.82947      1.80082      2.38797         0.914855     -0.084315      0.628979
O       3.73764      1.73722     15.22917        -0.644009      0.497902      0.439062
O       3.91548     13.23567      2.41695        -0.880781     -0.100331      0.188840
O       3.71282     13.21739     15.30283         1.128022     -0.152564      0.133221
O      15.16365      1.73380      2.60326         0.159247     -0.159356      0.448630
O      15.11327      1.83136     15.47304        -0.207389     -0.115993     -0.280189
O       0.03955     13.32774      2.61766        -0.142894     -1.059927     -0.279253
O      15.19029     13.07904     15.35754        -1.040988     -0.013897      0.168067
O       3.71031      1.89280      6.87245         0.990755     -0.169628      0.170218
O       3.86587     13.38211      6.93270        -1.050894     -0.547119     -0.148821
O       0.05064      1.91938      6.65932        -0.447469     -0.141242      0.387383
O       0.01171     13.29401      6.67018         1.082082     -0.468670     -0.054200
O       3.65138      1.77119     11.06115         1.068052      0.063424      0.431862
O       3.75647     13.46658     11.10418         0.693772     -0.281921     -0.092194
O      15.10672      1.91987     11.08335         1.059332     -0.067489      0.374275
O      15.17979     13.22644     11.21621        -0.624077      0.165247     -0.249908
O       3.80273      5.63390      2.44503         0.181359     -0.160272      0.356348
O       3.75909      5.50790     15.10946        -0.476986      0.387697      0.192893
O      15.19611      5.43562      2.79823         0.115427      1.201500     -1.191829
O      15.11996      5.52213     15.33375        -0.154395      0.158823      0.196275
O       3.84055      5.80933      6.84135        -0.645689     -0.275619      0.190624
O       0.11565      5.59134      6.71889        -1.569018      0.823411      0.105357
O       3.82194      5.73507     11.17517        -1.135907      0.021066      0.252445
O      15.15310      5.76921     11.09600         0.624263     -0.053411     -0.174985
O       3.85938      9.39116      2.65229        -1.261043     -0.243460     -0.599424
O       3.69101      9.24063     15.31326         0.933153      0.788948     -0.641535
O       0.09781      9.42547      2.66638        -1.299678      0.195327     -0.263495
O      15.11620      9.47919     15.46733        -0.123999     -0.171492     -0.006820
O       3.84054      9.48616      6.83524        -0.334687     -0.228563      0.330610
O       0.09736      9.48171      6.71613        -0.443278     -0.025211      0.264418
O       3.78262      9.46553     11.22360        -0.378537      0.183525      0.157066
O       0.02466      9.57139     11.12004        -0.800489     -0.101370     -0.094764
O       7.63972      1.77373      2.50749        -1.259096     -0.212987      0.458589
O       7.57270      1.77284     15.27472        -0.052624      0.387272     -0.058197
O       7.61945     13.19280      2.68824         0.295009      0.172510      0.033015
O       7.59554     13.21704     15.25927        -0.703569     -0.192476     -0.245546
O       7.54703      2.00052      6.91200         0.472508     -0.216006     -0.121822
O       7.59226     13.26799      7.02865        -0.088974      0.479552     -0.572983
O       7.57664      2.08213     10.87475        -0.560583     -0.762907      0.659967
O       7.58616     13.21406     10.97035         0.316711      0.377300      0.424245
O       7.60160      5.63695      2.49919        -0.215944      0.026780     -0.114790
O       7.57943      5.52702     15.23672         0.699000      0.170491      0.155767
O       7.60226      5.70277      6.93259        -0.189024     -0.092716      0.156049
O       7.60455      5.62203     11.11258         0.828331      0.507256      0.077262
O       7.55160      9.38003      2.63653         0.115073     -0.019538     -0.454166
O       7.50573      9.48172     15.28628         0.330051     -0.076147     -0.023487
O       7.62716      9.44196      7.03729        -0.685065      0.226411     -0.329733
O       7.56288      9.65099     11.09081         1.238341     -0.490214     -0.005273
O      11.38054      1.83011      2.72463        -0.196676     -0.187648     -0.184573
O      11.40261      1.83565     15.40025        -0.416688     -0.382570     -0.293651
O      11.37788     13.19890      2.57955         0.407396     -0.658459     -0.061379
O      11.35234     13.22940     15.35156         0.091842     -0.083563      0.564719
O      11.37791      1.90381      7.01362         0.112190     -0.057342     -0.280912
O      11.42462     13.26170      6.63513        -0.184405     -0.100874      0.702666
O      11.33719      1.84811     10.94500         1.378010      0.241369      0.131603
O      11.41622     13.48455     10.93933         0.250306     -0.726052      0.269852
O      11.38971      5.57686      2.59768        -1.083108      0.158304     -0.210371
O      11.42764      5.63992     15.42904        -2.239131      0.287853     -0.338250
O      11.40279      5.70544      6.85557         0.886951      0.322738      0.348820
O      11.42499      5.74931     11.15550         0.421794      0.115633     -0.196137
O      11.37415      9.35786      2.75959         0.284030      0.385283     -0.611509
O      11.26243      9.33417     15.43881         1.408288      0.666597     -0.683877
O      11.39784      9.41759      6.92952        -0.049772      0.124122     -0.244736
O      11.37787      9.42524     11.02878         1.758921      0.231316      0.294327
O       1.90200      3.65400      2.51083         0.191897      0.582359      0.210947
O       1.70976      3.64682     15.41770         1.084893      1.022081      0.082071
O       1.94307     15.07031      2.59055         0.216899     -0.189387     -0.109981
O       1.82270     15.10072     15.37476        -0.379182      0.427565     -0.278682
O      13.33506      3.69947      2.56005        -0.222719     -0.246668      0.409950
O      13.21162      3.71954     15.35761         0.066277      0.341607     -0.098253
O      13.23918     15.11040      2.66596         0.077305     -0.386860     -0.070954
O      13.38645     15.14799     15.34024        -0.503999     -0.161900      0.121777
O       1.88259      3.80446      6.82224         0.646814     -0.264825      0.051144
O       1.88176     15.11432      6.76948         0.049632      0.253814     -0.122493
O      13.28911      3.82061      7.03616         0.246637      0.284979     -0.424918
O      13.30567     15.18887      6.74736         0.075322     -0.154011      0.032970
O       1.92427      3.75455     10.92104        -0.159384      1.347104      0.556639
O       1.74126     15.19835     11.23923         0.007057      0.368495     -0.329791
O      13.38952      3.82789     10.91457        -0.864966      0.513979     -0.004565
O      13.39078      0.02165     11.02299        -0.189894     -0.448415      0.303719
O       1.84551      7.48768      2.58218         0.258385      0.592800     -0.265993
O       1.69733      7.39675     15.20083         0.496406      1.209219      0.547762
O      13.31619      7.46130      2.63824         0.534769      1.046950     -0.134668
O      13.32374      7.54370     15.44679        -0.550105      0.003544     -0.543207
O       1.88512      7.57392      6.83264         0.250060      0.044877     -0.276535
O      13.35183      7.55317      6.72766         0.277870     -0.216614      0.573327
O       1.85353      7.55631     11.27433         0.260645      1.476476     -0.441049
O      13.36956      7.67470     11.21570        -0.575990      0.280279     -0.457537
O       2.06338     11.31477      2.48211        -0.663229     -0.380137      0.099720
O       1.87455     11.26461     15.36733         0.381923      0.225532      0.230334
O      13.28737     11.28974      2.62694         0.382703      0.233003     -0.002264
O      13.18008     11.34458     15.40912         0.059675     -0.070227      0.266956
O       1.96846     11.37090      6.83572         0.207888      0.261471     -0.144906
O      13.36511     11.31053      6.68369        -0.258679      0.715397      0.451092
O       1.88660     11.46571     11.16482         0.556620     -0.960792     -0.058748
O      13.17529     11.47516     11.02610         0.242125     -0.704861     -0.264359
O       5.75993      3.73424      2.55240        -0.134702     -0.258230     -0.105785
O       5.62722      3.73144     15.28735         0.346727     -0.906456     -0.143576
O       5.80307     15.07729      2.77610        -0.215141      0.887479     -1.255556
O       5.57334     15.05493     15.35716         0.641915      0.506561     -0.185987
O       5.62652      3.83547      6.96776        -0.012626     -0.744759     -0.179490
O       5.75558      0.04315      6.90371        -0.117147     -0.683697     -0.059334
O       5.67382      3.75569     11.15801        -0.552162      0.023076      0.062665
O       5.71260      0.04294     11.21952         0.319756     -1.153332     -0.417316
O       5.62044      7.52038      2.58485         0.640617     -1.004819     -0.338235
O       5.71650      7.52824     15.07877        -0.182025      0.162918      0.160241
O       5.73530      7.61281      7.01302        -0.146008     -0.433100     -0.184222
O       5.67626      7.66441     11.26250         0.150278     -0.357180     -0.351498
O       5.78117     11.25045      2.55021        -0.164950      0.559137      0.081690
O       5.54020     11.35075     15.24647         0.144441     -0.430490      0.375688
O       5.66372     11.33207      6.97270         0.229634      0.563345     -0.356650
O       5.59623     11.48164     10.92644        -0.441514      0.437594      0.742077
O       9.48647      3.65226      2.67888        -0.238304      1.513552     -0.425455
O       9.57332      3.70217     15.04263        -0.234548      1.266498      0.684936
O       9.60369     15.04189      2.47876        -0.546704      1.161913      0.831940
O       9.46759     15.14582     15.24152         0.093017      0.156736      0.620142
O       9.59944      3.76209      6.78438        -0.120821      0.096974      0.028520
O       9.51375     15.18112      6.98077        -0.353508      0.349689     -0.430693
O       9.54479      3.82745     11.18194         0.041328     -0.676772      0.172952
O       9.43283     15.16864     11.01596        -0.542116     -0.087759     -0.434291
O       9.44525      7.51099      2.52422         0.363217     -0.660256      0.044790
O       9.47048      7.59945     15.32237        -0.541685     -0.566381      0.022508
O       9.46346      7.58348      7.02102         0.395894      0.068554      0.001889
O       9.53978      7.60187     11.00717        -0.587495     -0.029339      0.113439
O       9.41205     11.30297      2.78622         0.443996      0.074930     -0.655135
O       9.47552     11.30541     15.39836         0.079200      0.829427     -0.363578
O       9.32926     11.40850      6.85732         1.087883     -0.720926     -0.276902
O       9.57072     11.41937     11.12398        -0.037561      0.141453     -0.426864
