  # total energy = -7879.71003256 
CRSYTAL
PRIMVEC
    15.2000000000000000    0.0000000000000000    0.0000000000000000
     0.0000000000000000   15.2000000000000000    0.0000000000000000
     0.0000000000000000    0.0000000000000000    17.000000000000000
PRESSURE
7.44376 7.46411 1.07804 0.063024 0.147565 0.00844
PRIMCOORD
320 1
Pb       3.78831      3.68162      4.12550        -0.016032      0.392526      0.559801
Pb       3.89008      3.79617     16.91829        -0.560571      0.124531     -0.046433
Pb       3.70822      0.02387      4.22815         0.105979      0.007851      0.107751
Pb       3.70766     15.18539     16.95023         0.178131      0.088802      0.151592
Pb       0.03006      3.75017      4.21942        -0.315526      0.179447      0.004795
Pb      15.17890      3.70138      0.08626        -0.334339      0.358849     -0.121193
Pb      15.18647      0.03191      4.32227         0.498803      0.080598     -0.475173
Pb      15.04211     15.16867      0.05560         0.493340     -0.204795      0.002863
Pb       3.94069      3.82616      8.53907        -0.538346     -0.366106     -0.097853
Pb       3.78386     15.04657      8.69779        -0.035618      0.838158     -0.849272
Pb       0.16165      3.78092      8.51262        -0.956055     -0.011692      0.133572
Pb      15.14442     15.04922      8.43657         0.438042      0.516064      0.186030
Pb       3.71745      3.82363     12.70234         0.013060      0.323602     -0.133565
Pb       3.58946      0.08100     12.80329         0.644287     -0.074805      0.073296
Pb      15.10587      3.88443     12.66468         0.104694     -0.132570      0.284298
Pb      15.18400      0.16579     12.83279        -0.332095     -0.090268     -0.366655
Pb       3.78873      7.47229      4.17607         0.878513     -0.014466      0.602794
Pb       3.79801      7.53072     16.90450         0.040063      0.705981      1.145457
Pb       0.00747      7.64113      4.20125        -0.608935     -0.799576      0.451391
Pb      15.04155      7.55599     16.93611         0.261749     -0.178026     -0.017868
Pb       3.86756      7.68894      8.44474        -0.163153     -0.553540      0.099656
Pb       0.09102      7.54461      8.38983        -0.590041      0.096932      0.282350
Pb       3.73593      7.58691     12.68314         0.017769     -0.015894      0.292572
Pb       0.02460      7.62336     12.62553        -0.169286      0.110662      0.503751
Pb       3.71629     11.21126      4.22768         0.638935      0.129285     -0.517060
Pb       3.82976     11.31700      0.23316        -0.326835      0.265920     -0.837220
Pb       0.08471     11.36615      4.17186        -0.486746     -0.350059      0.507403
Pb      15.17160     11.38411      0.09836         0.401825      0.218520     -0.675387
Pb       3.86018     11.34202      8.57071        -0.039907      0.102526     -0.132297
Pb       0.02648     11.42505      8.38573        -0.028363     -0.302326      0.379822
Pb       3.64247     11.35591     12.86871         0.456907     -0.293935     -0.493823
Pb       0.00152     11.34188     12.88524         0.022816     -0.063150     -0.717461
Pb       7.49180      3.64517      4.25358         0.076269      0.546959      0.013354
Pb       7.54062      3.70958     16.84749         0.146168      0.546497      0.790267
Pb       7.59873     15.07443      4.26749        -0.372824      0.159893      0.095684
Pb       7.64591     15.14684     16.93963        -0.315727     -0.109233      0.121633
Pb       7.53801      3.77639      8.63679        -0.158296     -0.054072     -0.517097
Pb       7.66309     15.16874      8.44185        -0.495485     -0.051281      0.653274
Pb       7.62206      3.92316     12.80390        -0.341120     -0.235690     -0.563891
Pb       7.58217     15.17468     12.76384         0.243062      0.053477     -0.056135
Pb       7.70821      7.46432      4.21522        -0.599599      0.343967      0.119925
Pb       7.56455      7.72463     16.91108         0.725515     -0.726303      0.509011
Pb       7.55402      7.60680      8.49508        -0.345920      0.204431     -0.378384
Pb       7.52230      7.66198     12.70988        -0.378470     -0.047012      0.413329
Pb       7.57497     11.26099      4.37105        -0.346991     -0.027549     -0.629828
Pb       7.67872     11.41513     16.87723        -0.005954      0.150054      0.259202
Pb       7.65697     11.41998      8.60843        -0.600898     -0.167233     -0.614443
Pb       7.55276     11.36138     12.71328        -0.202079     -0.176524      0.259624
Pb      11.25713      3.73422      4.34711        -0.033503      0.442768     -0.411201
Pb      11.28725      3.63409      0.00767         0.242014      0.357410      0.437399
Pb      11.35878     15.13984      4.26008        -0.238687      0.119872      0.079710
Pb      11.38371     15.18993      0.03409         0.034258      0.021035     -0.248216
Pb      11.43082      3.87995      8.52733         0.256619     -0.766646     -0.438368
Pb      11.44438      0.02857      8.23588         0.285549      0.253839      1.154997
Pb      11.32602      3.83956     12.75543         0.063701     -0.080048      0.189754
Pb      11.46799      0.00968     12.58324        -0.131719      0.135705      0.912984
Pb      11.34099      7.62404      4.25321         0.258706     -0.690004     -0.147508
Pb      11.30594      7.53925     16.92765         0.170889      0.257515      0.135896
Pb      11.31918      7.53101      8.53279         0.680586      0.279316     -0.250617
Pb      11.41640      7.63420     12.72501        -0.119888     -0.157913     -0.058302
Pb      11.27075     11.20967      4.29134         0.487124      0.373324      0.039286
Pb      11.35404     11.56445     16.92754         0.110899     -0.703774     -0.259803
Pb      11.49651     11.41226      8.43931         0.211775     -0.156051     -0.087290
Pb      11.40341     11.57082     12.55606         0.226919     -0.673137      0.558628
Ti       1.88111      1.91294      2.11016        -1.112469     -0.675693     -0.278210
Ti       1.82415      1.90750     15.01839         0.738480      0.662894     -0.749169
Ti       1.85408     13.23062      2.32862         0.957414      1.041399     -1.627290
Ti       1.90029     13.29195     15.01305        -0.416180     -0.167630      1.414404
Ti      13.22294      1.80050      2.31150         0.439879      0.865993      0.026636
Ti      13.26200      1.92612     15.02377        -0.897211     -0.829579     -0.824960
Ti      13.29925     13.19808      2.35460         0.016535      1.119645     -0.648217
Ti      13.36545     13.26976     14.96113        -0.059792      0.726322     -0.106302
Ti       1.82985      1.86782      6.61394         2.125039     -0.427633     -1.147103
Ti       1.96839     13.24473      6.43494        -0.362839      1.243485     -0.482641
Ti      13.33176      1.86778      6.36176        -0.281361      1.497899      0.115744
Ti      13.35286     13.24783      6.41981        -0.042292     -0.519532      0.045114
Ti       1.87466      1.90151     10.75524        -0.598522      0.366411     -0.133083
Ti       1.87319     13.26581     10.82308        -0.210733     -0.183692     -0.863488
Ti      13.21892      1.93348     10.71714         1.115323      0.464258     -1.463535
Ti      13.39447     13.32481     10.71394         0.325727     -0.300551     -0.857439
Ti       1.84197      5.66745      2.17590         0.158061      0.209735     -0.404127
Ti       1.76322      5.75022     15.04005         0.800906     -0.721488     -0.201754
Ti      13.24201      5.62607      2.29140        -0.678711      0.670406     -0.475115
Ti      13.16098      5.68517     15.00475         0.971161     -0.406501     -0.466277
Ti       1.85310      5.61706      6.47923         0.864316      0.425396     -0.363422
Ti      13.18010      5.69474      6.49705         1.239153     -0.450640     -1.397006
Ti       1.82021      5.72735     10.69921         0.938459     -0.275058     -0.468926
Ti      13.17762      5.70184     10.70532         0.538014     -0.156803     -0.567364
Ti       1.91322      9.30321      2.10380         0.576230      0.963958     -0.345645
Ti       1.89478      9.49154     15.05979         0.005979      0.058116     -0.602065
Ti      13.33821      9.43028      2.13962        -0.961123     -0.802378      0.711797
Ti      13.27869      9.48699     14.93228        -0.561737     -0.042511      0.641885
Ti       1.89638      9.47499      6.45198         0.097818     -0.530696      0.668977
Ti      13.31097      9.45114      6.45681         0.419986     -0.226138     -0.170046
Ti       1.81225      9.50074     10.61694         0.636856      0.435138     -0.092390
Ti      13.26179      9.46252     10.65630         0.810082      0.270808     -1.710157
Ti       5.67295      1.84441      2.12799        -0.167745     -0.157080     -0.081725
Ti       5.69809      1.92190     14.87613        -0.820906     -0.664058     -0.208693
Ti       5.62936     13.29992      2.19518         0.661706     -0.573486      0.578950
Ti       5.69881     13.31203     15.05817        -0.038594      0.307541     -0.665806
Ti       5.66014      1.86546      6.56775        -1.125981      0.009325     -0.462426
Ti       5.65453     13.34499      6.49418         0.682756     -0.308040     -0.668035
Ti       5.73494      1.87457     10.85272        -0.408708      1.179215     -0.803469
Ti       5.65786     13.28979     10.91734        -0.299811     -0.904702     -0.681054
Ti       5.70994      5.68848      2.20457        -0.477275     -0.045611     -0.632316
Ti       5.65734      5.74963     15.00881        -0.111403      0.536871     -0.725477
Ti       5.62934      5.68069      6.44129        -0.099972      0.350579      0.048819
Ti       5.64540      5.73900     10.65932        -0.686923     -0.828730      0.380804
Ti       5.77877      9.50613      2.18166         0.029818     -0.225858      1.228729
Ti       5.73911      9.54557     15.01474        -1.262851     -0.264706     -1.167799
Ti       5.67997      9.56237      6.50211         0.467590     -0.688578     -0.679778
Ti       5.60880      9.49756     10.77353         0.281240     -0.523760      0.025470
Ti       9.35049      1.85407      2.25462         1.157738      1.093447     -0.411286
Ti       9.43635      1.85646     14.90467         1.182603      0.082606     -0.435438
Ti       9.49513     13.24540      2.34794        -0.671746      0.418832     -0.805014
Ti       9.54643     13.32380     14.87142        -0.061240     -0.281395     -0.153047
Ti       9.39673      1.88014      6.54717         1.474594      0.871222     -0.379799
Ti       9.51854     13.22668      6.54148        -0.273466      0.211732     -0.821928
Ti       9.51856      1.91062     10.75040        -0.357691     -0.145446     -0.285998
Ti       9.50313     13.30565     10.67762         0.394559      1.332280     -0.668727
Ti       9.46622      5.67302      2.18017         0.171377     -0.837316      0.888935
Ti       9.45964      5.63736     14.99262        -0.297380      0.731388     -1.262115
Ti       9.38100      5.66105      6.55217        -0.196097     -0.709510     -1.084669
Ti       9.37326      5.77483     10.70152         0.759825     -0.367513     -0.074743
Ti       9.51532      9.48898      2.07659        -0.700614     -0.251836     -0.532502
Ti       9.50637      9.51151     14.87355         0.681238     -0.498280      0.508201
Ti       9.51204      9.41321      6.54175        -0.677429      0.406696      0.640104
Ti       9.49902      9.49560     10.74544        -1.035425     -0.157346     -0.257461
O       1.87197      2.09166      0.29879         0.045590     -0.642265      0.171512
O       1.87673      1.85894     13.14503        -0.434777     -0.064939      0.943442
O       1.83676     13.29558      0.48263         0.291359     -0.192478      1.234064
O       1.73825     13.24113     13.23781         0.529655      0.201563     -0.007677
O      13.30034      1.77892      0.48397        -0.325142      0.151830      0.017566
O      13.18075      1.81040     13.22175         0.619655      0.451936      0.208041
O      13.32766     13.43807      0.51394        -0.275471     -0.698462      0.904456
O      13.39841     13.19941     13.16372        -0.148776      0.215330      0.113122
O       1.87575      1.91428      4.76008        -0.100527      0.030877      0.457253
O       1.97415     13.41036      4.59243        -0.311431     -1.087908      1.253398
O      13.55196      1.87173      4.52185        -0.820780      0.355598      1.196401
O      13.41288     13.12287      4.67944        -0.258422      0.107849     -1.002356
O       1.90908      1.85886      8.97112        -0.190942      0.009567      0.189997
O       1.85935     13.29033      9.00197         0.210166      0.145708      0.307805
O      13.17526      2.01670      8.90865         0.110103     -0.187446      0.642145
O      13.47947     13.32449      8.89106        -0.568362     -0.316559      0.456308
O       1.81239      5.76646      0.37192         0.054023     -0.328870      0.354610
O       1.91905      5.86440     13.24882        -0.385661     -0.312032     -0.105855
O      13.15894      5.72578      0.46215         0.276935     -0.101021      0.501849
O      13.25705      5.58675     13.20095        -0.495914      0.607242      0.242788
O       1.96767      5.62289      4.66767        -0.371097      0.133400      0.837883
O      13.33672      5.76155      4.68542        -0.465187     -0.307463      0.609032
O       1.94427      5.62058      8.93087        -0.532557      0.106781      0.185861
O      13.16309      5.59338      8.90915         0.021227      0.280926     -0.093705
O       1.86216      9.41876      0.29807        -0.031090      0.012856      0.923282
O       1.92663      9.46283     13.21060        -0.134090      0.302548      0.784163
O      13.33709      9.45401      0.36159        -0.250680     -0.063672      0.668439
O      13.26016      9.45656     13.15483        -0.273161      0.184831     -0.116496
O       1.79669      9.39741      4.63921         0.654535      0.296113      0.475898
O      13.42224      9.48991      4.62559        -0.362217      0.021096      0.472798
O       1.89444      9.48211      8.80739        -0.332197      0.335557      1.225449
O      13.27599      9.34767      8.77549        -0.020985      0.783431      2.052739
O       5.73318      1.96900      0.33829        -0.004606     -0.307637      0.364307
O       5.66538      1.95937     13.07462         0.073830     -0.375684      0.568551
O       5.66078     13.33063      0.40383         0.118179     -0.420970     -0.012624
O       5.67666     13.28512     13.26598         0.214624      0.129581     -0.534198
O       5.66703      1.76021      4.75981        -0.023370      0.251358      0.242183
O       5.70964     13.47221      4.70624        -0.122385     -0.571305      0.468315
O       5.73377      1.89960      9.02791         0.114760      0.039899      0.424543
O       5.67614     12.99723      9.12056        -0.168440      1.092835      0.794012
O       5.63042      5.62444      0.35213         0.587053      0.066741      1.613015
O       5.59266      5.90194     13.19925         0.201828     -0.614388      0.676243
O       5.66180      5.69115      4.65619        -0.145209     -0.200518     -0.097868
O       5.60946      5.60359      8.87253         0.493859      0.369693      0.124177
O       5.82205      9.61220      0.42263         0.152567     -0.121461     -0.675861
O       5.73877      9.38937     13.18422        -0.407967      0.211445      1.049313
O       5.71993      9.58598      4.69888        -0.177752      0.158722      0.033183
O       5.63232      9.56350      8.97670         0.231143      0.093650     -0.363490
O       9.36315      1.80574      0.45138         0.042272     -0.060612     -0.047844
O       9.54932      1.97002     13.11387        -0.431254     -0.027007      0.522488
O       9.60542     13.30817      0.51656        -0.225610     -0.006853      0.261030
O       9.57734     13.28121     13.10645        -0.070430      0.089386     -0.296579
O       9.41524      2.07058      4.76873        -0.004695     -0.672579     -0.068793
O       9.59852     13.21200      4.69924        -0.425572     -0.077709      0.491589
O       9.44254      1.73125      8.95286         0.361545      0.416887      0.066101
O       9.44974     13.46222      8.85487         0.417822     -0.590418      0.818784
O       9.52642      5.63241      0.42974        -0.209860      0.232666     -0.774908
O       9.48409      5.51733     13.11617        -0.127702      0.468672      1.122863
O       9.46572      5.62255      4.73542        -0.297130      0.087920      0.384932
O       9.39020      5.96669      8.87956        -0.068342     -0.858633      0.686377
O       9.50189      9.44958      0.23780        -0.309463      0.460835      1.542061
O       9.47060      9.60101     13.09973         0.271994     -0.267112     -0.627644
O       9.56896      9.44517      4.77792        -0.341694      0.582323     -0.616509
O       9.35766      9.38913      8.94556         0.485425      0.015099      0.159995
O       3.70306      1.98763      2.43280         1.606984      0.011547      0.282831
O       3.81570      1.73180     15.21825        -0.027581      0.420568      0.196405
O       3.76201     13.12359      2.68240         0.328624     -0.045517     -0.522460
O       3.80700     13.35102     15.49523        -0.613380     -0.051311     -0.802624
O       0.00226      1.84295      2.41765        -0.086674     -0.045503      0.328027
O      15.15425      1.99598     15.29905         0.288258      0.098464      0.064271
O       0.02659     13.37170      2.67471        -0.630680     -0.590521     -0.146092
O       0.02213     13.21631     15.47306        -0.403719      0.230439     -0.371582
O       3.80674      1.78262      6.97004        -0.107770      0.419177     -0.067697
O       3.81756     13.28489      6.82025        -0.654503      0.052817      0.466521
O       0.01337      1.88997      6.93070        -0.920459      0.105176     -0.150904
O       0.01102     13.24151      6.82055         0.936974      0.058833     -0.062444
O       3.68531      1.89035     11.13931         0.978585     -0.223773      0.049288
O       3.74206     13.28447     11.26391         0.764774      0.167029     -0.263250
O      15.11258      2.06943     11.07153         0.335793     -0.241362      0.284843
O       0.03581     13.19193     11.07789        -0.895228      0.154311      0.370415
O       3.76854      5.57406      2.60656         0.872058     -0.097427     -0.364239
O       3.79582      5.83993     15.51525        -0.414604     -0.798217     -1.460089
O      15.18100      5.81456      2.54172        -0.101169      0.372731     -0.055582
O      15.10009      5.61214     15.33316         0.320741      0.034467      0.061637
O       3.76628      5.70546      6.83773         0.028865     -0.428455     -0.075314
O      15.15320      5.62383      6.87030         0.706869      0.380200     -0.030512
O       3.77513      5.74532     11.03597        -0.736087      0.207729      0.294325
O      15.10185      5.62458     11.03951         0.230351      0.251449      0.063528
O       3.86341      9.51964      2.45374        -0.415903      0.123606      0.198556
O       3.87447      9.41286     15.42725        -0.810213      0.422460     -0.355471
O       0.03379      9.15772      2.43305        -0.630108      0.494371     -0.252402
O      15.14726      9.44376     15.22730         0.146871      0.480265      0.249574
O       3.76000      9.54430      6.84235         0.088592     -0.062808     -0.250122
O       0.02589      9.47067      6.76074         0.024442     -0.233050      0.223941
O       3.73725      9.37826     11.05342        -0.613555      0.405448     -0.051432
O      15.15891      9.57074     11.11963        -0.086956     -0.239526     -0.310780
O       7.54588      1.77864      2.72690        -0.877197     -0.544368     -0.486229
O       7.56883      1.93838     15.28608         0.219074      0.454736     -0.274054
O       7.57504     13.40335      2.59414         0.260788      0.015978     -0.024255
O       7.67530     13.22287     15.31637        -0.415222     -0.204352      0.154160
O       7.59920      1.82372      6.94446        -0.132619     -0.049865     -0.184897
O       7.55871     13.20119      6.82706         0.773875      0.472504      0.024222
O       7.61995      1.97033     11.18756        -0.101721     -0.335272     -0.230290
O       7.68196     13.31023     11.12977        -1.358476     -0.092549      0.016586
O       7.50770      5.67724      2.66594         1.226491      0.055917     -0.411964
O       7.57267      5.67054     15.27695         0.475191     -0.405288      0.091382
O       7.47061      5.63821      6.83696         1.079162      0.278884      0.314211
O       7.50470      5.52499     11.04984         0.244092      0.762069      0.027655
O       7.65933      9.46423      2.60063         0.291015     -0.182706      0.060740
O       7.60628      9.54460     15.23465         0.615849      0.238184      0.415871
O       7.60290      9.59410      6.74120         0.002862      0.028242      0.487474
O       7.49956      9.54263     11.16750         1.456110      0.144371     -0.393049
O      11.33234      1.91211      2.55460         0.541807      0.139493      0.331247
O      11.33612      1.70237     15.34840        -0.164837      0.245700      0.288021
O      11.41817     13.25603      2.70985         0.272797     -0.393250     -0.240721
O      11.43026     13.43921     15.30611        -0.047044     -0.350423      0.207610
O      11.44930      1.93430      6.70484        -0.239827     -0.649815      0.041849
O      11.49374     13.29143      6.82526        -0.512320     -0.413016      0.146445
O      11.43093      1.88166     11.18495        -1.623641      0.080710     -0.420957
O      11.48684     13.38400     10.99960        -0.740044     -0.452346     -0.038338
O      11.27501      5.50262      2.69156         0.823838      0.360028     -0.219428
O      11.32834      5.68384     15.36642         0.033249      0.156057     -0.136293
O      11.30256      5.66410      6.80788         0.254619      0.357535      0.377721
O      11.30895      5.90063     10.99094        -0.742438     -0.074620      0.192112
O      11.30206      9.55641      2.60770         1.483503      0.356588     -0.375082
O      11.32884      9.40366     15.40518         1.193374      0.412561     -0.763115
O      11.42898      9.41501      6.76671        -0.798007      0.484137      0.247956
O      11.38127      9.39954     11.02078        -0.536531     -0.015567      0.002342
O       1.74357      3.82745      2.47240         0.262505     -0.623044      0.308780
O       2.01876      3.81494     15.18963        -0.113354      0.103178      0.289466
O       1.95076      0.01093      2.59321         0.098519     -0.061839     -0.538358
O       1.81251      0.01438     15.39660        -0.025438     -0.344338     -0.391761
O      13.40009      3.82806      2.58962        -0.165354     -1.355014     -0.044682
O      13.10773      3.75648     15.35527         0.174500      0.283389      0.211308
O      13.26931     15.15182      2.76736        -0.048415     -0.278444     -0.469368
O      13.42590     15.19427     15.31514        -0.037341     -0.471913      0.103930
O       1.92289      3.74970      6.89718        -0.009816      0.601654     -0.066153
O       1.91610     15.16072      6.85948        -0.281194     -0.681165      0.173238
O      13.25168      3.76320      6.71625         0.177761      0.135207      0.105786
O      13.43980     15.17195      6.56953        -0.432197      0.269714      0.602572
O       1.84338      3.90281     11.13376         0.286641     -1.236737      0.119277
O       1.83017     15.19353     11.17928        -0.283075      0.132277     -0.227223
O      13.00294      3.86286     11.11541         0.876250     -0.422356     -0.157562
O      13.36502      0.04108     10.94902         0.216483     -0.649903      0.532353
O       2.12610      7.52994      2.66991        -0.982086      0.017993     -0.780893
O       1.82246      7.65376     15.32225         0.056634     -1.165555      0.276416
O      13.04109      7.55800      2.67889         0.691808      0.824568     -0.836061
O      13.27808      7.59018     15.28891        -0.329345     -0.383705     -0.027431
O       2.01844      7.56214      7.05490        -1.075407      0.085980     -1.660045
O      13.26519      7.57430      6.83220         0.245726     -0.222670     -0.090335
O       1.75725      7.64815     10.98373        -0.044542     -0.677212      0.145847
O      13.29508      7.57191     11.01163         0.174966      0.719007      0.498535
O       1.87594     11.21242      2.45486        -0.570161      0.873119      0.432643
O       1.84416     11.39456     15.41521         0.566277     -0.061420     -0.238922
O      13.51194     11.31670      2.54917        -0.365095     -0.095800     -0.391058
O      13.30910     11.40912     15.39222        -0.498502     -0.194167     -0.137615
O       1.90384     11.41654      6.85237        -0.072977     -0.522340     -0.643377
O      13.32690     11.35402      6.79543        -0.215232     -0.183732      0.422667
O       1.93047     11.37318     11.15127         0.061823     -0.341964     -0.013870
O      13.24153     11.34482     10.99206        -0.207521      0.542947     -0.107096
O       5.80406      3.65692      2.54772        -0.630823      1.171987      0.013916
O       5.64459      3.85606     15.22308        -0.150949     -0.869318      0.000626
O       5.51340     15.13840      2.47024         0.108031      1.092908      0.191639
O       5.86324      0.02154     15.28173        -0.279827     -0.019833      0.022638
O       5.71867      3.76723      6.84403        -0.245753     -0.292718      0.065745
O       5.67611      0.00239      7.01133         0.266819     -1.299314      0.051098
O       5.53561      3.77997     11.01563         0.227650      0.297337      0.356184
O       5.65457     15.18969     11.07310         0.141197     -0.759900      0.260901
O       5.76967      7.58816      2.58878        -0.562202     -0.336307     -0.358176
O       5.84556      7.63843     15.50835        -0.822269     -0.039481     -0.775827
O       5.64984      7.63517      6.79570         0.182304     -0.137903      0.214321
O       5.69949      7.57441     11.02144         0.448625      0.040017      0.008339
O       5.82953     11.38458      2.57934        -0.334910      0.232040      0.156423
O       5.65850     11.43715     15.30226         0.210500     -0.684596      0.360820
O       5.62264     11.37917      6.93666         0.183179      1.065682     -0.349460
O       5.62054     11.27051     11.25785        -0.187648      2.418883      0.221128
O       9.34299      3.75961      2.50092        -0.133184     -0.211400      0.349491
O       9.59334      3.74644     15.38899        -0.599573     -0.285691     -0.381332
O       9.53174      0.04286      2.69320         0.227958     -1.386885      0.233607
O       9.28794     15.19422     15.22269         0.533295     -0.174380      0.007552
O       9.47512      3.78748      6.88489        -0.289091     -0.537470      0.547051
O       9.68756     15.11825      6.77038        -1.331584      1.029049     -0.331027
O       9.43587      3.88815     10.92405         0.827225     -1.008068      0.034582
O       9.55301      0.04062     11.13725        -0.466185     -0.486412     -0.069399
O       9.58715      7.59280      2.52567        -0.490409     -0.046384      0.015482
O       9.48488      7.54832     15.17476        -0.302834      0.061853      0.154990
O       9.32827      7.55348      6.79264         0.376243      0.735569      0.150080
O       9.27269      7.63958     11.14848         0.569485     -0.233459     -0.190257
O       9.39664     11.38346      2.53234         0.354883     -0.146286      0.208696
O       9.63070     11.39206     15.16611        -0.122938      0.769862      0.716897
O       9.52570     11.42698      7.00575         0.556860     -1.003180     -0.296275
O       9.53873     11.43806     10.87499         0.184936     -0.361135      0.288690
