  # total energy = -7878.02218888 
CRSYTAL
PRIMVEC
    15.2000000000000000    0.0000000000000000    0.0000000000000000
     0.0000000000000000   15.2000000000000000    0.0000000000000000
     0.0000000000000000    0.0000000000000000    17.000000000000000
PRESSURE
7.42136 7.79511 3.72784 0.339162 0.141843 -0.066836
PRIMCOORD
320 1
Pb       3.85721      3.77023      4.22157        -0.200408      0.276728     -0.207007
Pb       3.59338      3.71012      0.04726         0.949334      0.396816     -0.408882
Pb       3.88135     15.04781      4.27647        -0.528129      0.427505     -0.807177
Pb       3.78437     15.17514      0.02500         0.062430      0.080165      0.186476
Pb      15.13492      3.78836      4.28463        -0.254060     -0.225639     -0.712335
Pb      15.10381      3.76007     16.97934        -0.525780     -0.019943      0.020355
Pb      15.18851     15.07983      4.11462         0.511534      0.036385      0.489296
Pb      15.18487      0.03811     16.96836        -0.069649      0.262800     -0.067876
Pb       3.62934      3.69160      8.56635        -0.272075      0.765136     -0.822722
Pb       3.73979      0.11709      8.28986        -0.041432     -0.516556      0.280475
Pb      15.03196      3.82010      8.36263         0.379105      0.250084      0.359489
Pb       0.17136      0.05029      8.54444        -0.545250     -0.346166     -0.226779
Pb       3.75795      3.79649     12.85584         0.099258      0.575920     -0.518951
Pb       3.79300     15.09280     12.62894         0.400237      0.194504      0.089825
Pb       0.03005      3.60148     12.81887        -0.348128      0.921170     -0.464023
Pb      15.13073     15.07997     12.60024         0.198265      0.054658      0.081593
Pb       3.76271      7.54779      4.18289         0.070576     -0.167124      0.092490
Pb       3.79927      7.51849      0.11720         0.213583     -0.240418     -1.166687
Pb       0.02339      7.42890      4.19097        -0.640935      0.508028     -0.018576
Pb       0.13989      7.63153      0.12901        -0.684031      0.126224     -0.699219
Pb       3.70364      7.52699      8.56189         0.173059     -0.150844     -0.514696
Pb       0.03005      7.65100      8.51838        -0.602568     -0.244729      0.148515
Pb       3.81843      7.74159     12.84344         0.408253     -1.094731     -0.157621
Pb      15.16041      7.71505     12.78980        -0.020754     -0.652100     -0.041936
Pb       3.91241     11.37249      4.20104        -0.612709      0.255683     -0.295589
Pb       3.66969     11.37671     16.80648         0.331975     -0.302706      0.803346
Pb      15.16502     11.28774      4.24927         0.287111      0.961727     -0.299364
Pb      15.16255     11.41502      0.04193         0.316868     -0.848352     -0.238004
Pb       3.81391     11.32512      8.36408         0.083678      0.420720     -0.056645
Pb      15.17041     11.33761      8.47637        -0.210223     -0.013569      0.223111
Pb       3.86006     11.39956     12.68949        -0.061745      0.487960      0.044014
Pb       0.00089     11.55412     12.53616         0.594237     -0.728435      0.860021
Pb       7.64488      3.81471      4.24545        -0.850394      0.003395     -0.114533
Pb       7.59732      3.77521     16.93765        -0.453933      0.037002      0.021142
Pb       7.59478      0.10579      4.26756        -0.099416     -0.320424     -0.831276
Pb       7.50595      0.03618     16.98764         0.293974     -0.220922      0.091612
Pb       7.48105      3.85927      8.50598         0.064219     -0.089410     -0.138373
Pb       7.52558      0.00554      8.48379        -0.069778     -0.240723     -0.302490
Pb       7.55863      3.66525     12.66157        -0.140942      0.691340      0.282519
Pb       7.67018      0.06435     12.67315        -0.719338     -0.468821      0.304392
Pb       7.43569      7.63084      4.38046         0.079509     -0.339771     -0.896859
Pb       7.60105      7.40745     16.94357        -0.503553      0.744111     -0.019766
Pb       7.63075      7.53718      8.61233        -0.237256     -0.203446     -0.558330
Pb       7.77365      7.55348     12.85402        -0.800440     -0.046793     -0.497814
Pb       7.67718     11.43292      4.13698         0.161476      0.364719      0.567857
Pb       7.61762     11.30201     16.96351        -0.423072      0.195377      0.440931
Pb       7.59031     11.25933      8.37303        -0.197063      0.666050     -0.125400
Pb       7.62539     11.30741     12.80212        -0.053924      0.228428     -0.563726
Pb      11.44498      3.68063      4.31587        -0.068618      0.020827     -0.224890
Pb      11.43645      3.93723     16.98672        -0.051222     -0.607574     -0.166531
Pb      11.29203      0.01258      4.27368         0.150676     -0.157115     -0.116463
Pb      11.27931     15.19257     16.95059         0.418988      0.007560     -0.035252
Pb      11.31360      3.73699      8.48593        -0.112727      0.548940     -0.039522
Pb      11.37151     15.14050      8.63598         0.318559     -0.091967     -0.758199
Pb      11.46402      3.80472     12.72044         0.091291      0.083327     -0.356779
Pb      11.33143     15.18628     12.83981         0.071803     -0.273404     -0.237649
Pb      11.37199      7.55286      4.33497         0.108871     -0.105631     -0.540608
Pb      11.35706      7.54987      0.07572        -0.074777      0.096844     -0.200606
Pb      11.42726      7.66786      8.34928         0.004524     -0.585283      0.082531
Pb      11.37719      7.55807     12.62440        -0.067252      0.363572      0.751858
Pb      11.43517     11.51218      4.25734        -0.179274     -0.059745     -0.113580
Pb      11.30983     11.26494      0.12275         0.104032     -0.004617     -0.388742
Pb      11.35124     11.33136      8.52408         0.357837      0.317419     -0.699322
Pb      11.49829     11.37206     13.00462        -0.169441     -0.122497     -0.681922
Ti       1.81394      1.93234      2.27181         0.304957     -0.972864     -0.409147
Ti       1.87189      1.87100     15.02195         0.184554      0.068175      0.752087
Ti       1.96330     13.25200      2.08446         0.110702      0.770463      2.158538
Ti       1.92084     13.30608     14.87989        -0.722645     -0.736879      0.007518
Ti      13.21801      1.82343      2.27683         0.857133      1.272916     -0.304568
Ti      13.20023      1.87416     14.95368         0.440930      0.378580      0.678536
Ti      13.35234     13.30701      2.07943         0.268671     -0.616252      2.396162
Ti      13.36228     13.21431     15.04404        -1.538520      0.645838     -0.505921
Ti       1.72846      1.93025      6.28054         1.462455     -0.368330     -0.666999
Ti       1.82664     13.23773      6.45747         0.747351      0.660028     -0.664656
Ti      13.22077      1.82339      6.55185        -0.496104      0.181519     -0.632958
Ti      13.35444     13.30117      6.44232        -1.805062     -0.204899      0.206642
Ti       1.82508      1.88134     10.78291         0.478554      0.650866     -1.197585
Ti       2.02139     13.30084     10.61989        -0.820554     -0.447183      1.146255
Ti      13.25329      1.88353     10.68180        -0.016729      1.111726     -0.057733
Ti      13.24005     13.28813     10.77002         0.626707     -0.190253     -1.573437
Ti       1.79799      5.63463      2.19284         0.951374      0.036867      1.105742
Ti       1.82214      5.60780     14.98955         1.015350      1.930436     -0.557868
Ti      13.14228      5.66512      2.19624         1.405821     -0.005057      0.678077
Ti      13.26496      5.74270     14.87380        -0.025533      0.200395      1.118324
Ti       1.77012      5.70072      6.37935         1.453619     -0.795457      0.538347
Ti      13.20176      5.66526      6.36984        -0.128628      0.593374      0.234034
Ti       1.85307      5.73527     10.69208        -0.318269     -1.352280      0.612733
Ti      13.27954      5.76924     10.68957         0.664352     -0.759243      0.634543
Ti       1.84221      9.46326      2.29426         0.555394      0.663985     -1.381541
Ti       1.87000      9.45207     14.97052        -0.717811     -0.431379      1.107702
Ti      13.23458      9.52786      2.35190         0.444287     -0.802542     -0.785529
Ti      13.26217      9.45098     15.11772         0.214237     -0.052019     -1.361695
Ti       1.78197      9.41468      6.44890         0.759823      0.526997      1.092119
Ti      13.25458      9.49834      6.30115         0.225618     -0.116684      2.385883
Ti       1.94280      9.43638     10.78105        -0.959446      0.652550     -0.783590
Ti      13.31122      9.50448     10.82969        -0.386716     -0.540865     -0.376999
Ti       5.61928      1.92583      2.14562         0.544988     -0.272969      0.353901
Ti       5.66638      1.85274     15.02242         0.249198      0.854132      0.563013
Ti       5.79767     13.25241      2.18986        -0.579444      1.236623     -0.384125
Ti       5.69513     13.30533     14.99681         0.361208     -0.022674     -1.140217
Ti       5.59188      1.93923      6.34051         0.302937      0.608679      0.400266
Ti       5.71898     13.35719      6.42747         0.299193     -1.545821      1.103019
Ti       5.55873      1.93950     10.63497         0.454831     -0.315332      0.711021
Ti       5.78053     13.28996     10.66673        -0.565473      0.733536     -0.297766
Ti       5.64810      5.69366      2.19769         0.563094      0.743772      0.807617
Ti       5.73599      5.59850     14.89406        -1.470712      1.498928      0.874680
Ti       5.63212      5.73253      6.55858        -0.516403     -1.015818     -0.872581
Ti       5.64236      5.73492     10.81893         0.317681      0.024705      0.371656
Ti       5.66931      9.51230      2.21031        -0.014275     -1.060728      0.315640
Ti       5.68447      9.52965     14.95227        -0.143786     -1.584401      0.382269
Ti       5.60425      9.42550      6.39558         0.077447      1.189073      0.825170
Ti       5.70677      9.53331     10.69064         0.509485     -0.722437      0.924597
Ti       9.46312      1.90514      2.20089        -0.308396     -0.416747     -0.189376
Ti       9.46059      1.92775     14.95894        -0.193411     -0.538699      0.419678
Ti       9.61652     13.29638      2.18008        -1.345839      0.392820      0.868002
Ti       9.47372     13.30196     15.01595         0.561703      0.067798      0.876888
Ti       9.38945      1.91445      6.53535         0.255161      0.103641     -0.045320
Ti       9.54090     13.31012      6.46850        -0.175272     -0.384269     -0.148898
Ti       9.41271      1.87951     10.68931         0.575829      0.269168      0.070662
Ti       9.50241     13.26619     10.72581        -0.233653     -1.123205     -0.110369
Ti       9.40702      5.63435      2.26583         0.291882      1.111706     -0.264795
Ti       9.50482      5.64770     14.95576         0.117882      0.607602      2.561879
Ti       9.43519      5.65180      6.35508         0.481200      0.367367      1.981375
Ti       9.52526      5.63773     10.76434        -1.162868     -0.002542      0.167094
Ti       9.46282      9.37875      2.37671         0.215506      1.425121      1.072777
Ti       9.45874      9.50272     14.99879         0.227201     -0.917307     -0.006928
Ti       9.45207      9.47884      6.35844         0.427116      0.432943      1.121328
Ti       9.50457      9.43629     10.65577        -0.087780      0.628397      1.220609
O       1.82876      2.02566      0.37879        -0.117145     -0.118823      0.405065
O       1.84301      1.99309     13.26580         0.024698     -0.555526     -0.828470
O       2.00011     13.25498      0.35658        -0.282139     -0.002946     -1.216387
O       1.85899     13.33482     13.06837         0.136593      0.271555      1.005221
O      13.32128      1.96115      0.50293        -0.081911     -0.169042     -0.604227
O      13.23947      1.95685     13.19320         0.016485     -0.321536     -0.651527
O      13.31091     13.14917      0.35749         0.038801      0.633126     -0.960572
O      13.39724     13.19991     13.16332        -0.332808      0.255733      0.583885
O       1.82457      1.81903      4.48415         0.036577      0.378415      0.910034
O       1.83179     13.33037      4.65799         0.395646     -0.192087      0.764939
O      13.16709      1.88766      4.73964         0.058230     -0.051501      0.044256
O      13.38671     13.28584      4.65956        -0.189015      0.281097      0.169734
O       1.93366      1.85812      8.94856        -0.574527      0.106147      0.280781
O       1.96641     13.42446      8.89567        -0.131936     -0.248307     -1.761950
O      13.40408      1.90939      8.88055        -0.351412     -0.034879      0.322530
O      13.17452     13.31682      8.97196        -0.111962     -0.201226      0.335891
O       2.00041      5.66283      0.40639        -0.711918     -0.203152      0.432125
O       1.78088      5.62195     13.20083         0.035731      0.103320      0.287044
O      13.07283      5.64732      0.40914         0.771390      0.116774      0.352736
O      13.19906      5.71118     13.10310         0.313058      0.212737      0.002849
O       1.90267      5.70615      4.60471        -0.150098      0.002751      0.065447
O      13.07971      5.65387      4.58708         0.456510     -0.195021      0.103519
O       1.83021      5.66273      8.89430         0.230099      0.169312      0.140440
O      13.25667      5.81791      8.93056        -0.058648     -0.218066     -0.780292
O       1.81342      9.43209      0.43582         0.378710      0.251641      1.034757
O       1.82690      9.35475     13.22127        -0.014138      0.025989     -1.114153
O      13.31659      9.56036      0.55867        -0.380501      0.027342     -0.468179
O      13.28122      9.45753     13.18690        -0.120065      0.125108      1.264950
O       1.70596      9.43837      4.72695         0.390282      0.170764     -1.593478
O      13.34624      9.58953      4.58490        -0.098561     -0.098157     -1.046504
O       1.80304      9.43309      8.97782         0.383089     -0.013052      0.183419
O      13.38675      9.37081      9.06187        -0.323903      0.251823     -0.670712
O       5.60824      1.98409      0.34417         0.288263     -0.318705      0.524898
O       5.74406      1.90272     13.29000        -0.299561     -0.377529     -1.909338
O       5.75700     13.25808      0.38366        -0.032612      0.086574      0.406128
O       5.60703     13.31177     13.17972         0.093754      0.425592      0.601175
O       5.76299      1.95799      4.56651        -0.316689     -0.283139      0.089895
O       5.63262     13.40605      4.65122         0.402913     -0.516948     -0.337861
O       5.53160      2.04178      8.88370         0.039949     -0.081544     -0.766701
O       5.83278     13.23520      8.90364        -0.327687      0.011267     -0.379292
O       5.72405      5.73943      0.46114        -0.009801     -0.142316     -1.164795
O       5.64983      5.71484     13.15566         0.265400     -0.083804     -1.230700
O       5.70766      5.78829      4.74757        -0.211162      0.111466      0.231333
O       5.70969      5.63067      9.02119        -0.079843      0.278922     -0.866827
O       5.66097      9.48807      0.46818        -0.042466      0.352820     -0.968910
O       5.74479      9.51914     13.16725        -0.244119      0.122731     -0.138380
O       5.46344      9.42911      4.63210         0.778262     -0.003014      0.159266
O       5.63931      9.48878      8.93092         0.252867      0.134098     -0.352932
O       9.48897      1.84814      0.44552         0.041850      0.105000     -0.669875
O       9.35078      1.84892     13.17987         0.568453     -0.102323     -0.571027
O       9.46052     13.34129      0.41823         0.202229      0.027196     -0.131276
O       9.58569     13.23982     13.26833        -0.187087     -0.014670     -1.328161
O       9.41654      2.07308      4.72161         0.108538     -0.739829      0.211926
O       9.57635     13.29407      4.66096        -0.033883      0.170590      0.363467
O       9.45992      1.79650      8.91754        -0.229526     -0.016989     -0.151649
O       9.65134     13.34093      8.92791        -0.329058      0.014486      0.554231
O       9.35521      5.83251      0.44235         0.480020     -0.650782      0.330640
O       9.45585      5.64960     13.29173         0.121930     -0.201204     -3.648266
O       9.51038      5.55816      4.62947        -0.057853      0.256538     -1.131724
O       9.57038      5.57665      9.03774        -0.528471      0.679767     -1.404504
O       9.49460      9.40789      0.65253        -0.186358      0.235908     -2.198589
O       9.38735      9.56451     13.21412         0.496124      0.251178      0.277304
O       9.70856      9.63870      4.64620        -0.698673     -0.204864     -0.649898
O       9.48480      9.46413      8.89496        -0.024248     -0.356286     -0.743436
O       3.79044      1.96233      2.57297        -0.165438      0.516800     -0.163725
O       3.85416      2.01156     15.39103        -2.480144     -0.391665     -0.224422
O       3.87608     13.34065      2.57979        -0.196026     -0.385477     -0.073140
O       3.73310     13.18467     15.30154         0.420372      0.321845     -0.228964
O      15.17226      2.04086      2.62864        -0.225157     -0.629883     -0.211965
O      15.11446      2.07435     15.32912         0.609789     -1.015432     -0.025321
O       0.07204     13.33847      2.49663        -0.237123     -0.403936     -0.492224
O       0.00032     13.37818     15.37432         0.399791     -0.208747     -0.086868
O       3.65699      1.90455      6.68020         1.005757      0.175030      0.062085
O       3.82946     13.33610      6.88076        -0.583928     -0.355331     -0.551998
O      15.12559      1.98625      6.68879        -0.321941     -0.001169      0.538560
O      15.11651     13.23423      6.79302         2.163579      0.304948      0.680272
O       3.68159      1.98469     11.08093         1.157681      0.048444      0.382880
O       3.86273     13.30372     11.12805        -0.490542     -0.092070     -0.320469
O      15.18306      1.83706     11.07838        -0.800493     -0.146716      0.423418
O      15.19758     13.34435     10.88600        -0.080083      0.444825      0.803147
O       3.80540      5.80114      2.59697        -0.851657     -0.802319     -0.232721
O       3.82722      5.68659     15.24297        -0.848472     -0.494096      0.281239
O      15.16373      5.68829      2.64586        -0.087940     -0.324457     -0.663710
O      15.08826      5.96654     15.32603         0.774932     -1.031507     -0.031227
O       3.74709      5.65577      6.92035         0.271791      0.029269     -0.213015
O      15.10823      5.62343      6.66644         0.131404      0.235040      0.117985
O       3.76061      5.59851     11.19453         0.082874     -0.213385     -0.370433
O      15.17115      6.05740     10.92612        -0.116582     -0.452615      0.327488
O       3.74365      9.44638      2.65969         0.267986      0.478071     -0.238917
O       3.70764      9.62218     15.18032         1.325765     -0.223640      0.257118
O      15.19103      9.55921      2.58234         0.578843     -0.186371      0.269815
O      15.10827      9.42307     15.48601         0.671375     -0.140608     -0.391030
O       3.68905      9.51973      6.85393         0.843908     -0.249547     -0.175806
O      15.16169      9.50743      6.95360        -0.153623     -0.447359     -0.637833
O       3.75357      9.64483     11.09953         1.271561     -0.207671      0.155068
O       0.05649      9.35288     11.11281        -0.515069     -0.121714      0.194792
O       7.56132      1.89309      2.42401         0.415266     -0.054711      0.538413
O       7.55284      1.78664     15.31235         0.998938     -0.060739      0.558118
O       7.63302     13.49911      2.68596         0.119107     -0.886868     -0.451379
O       7.60318     13.42576     15.19606        -0.349932     -0.018396      0.458472
O       7.47958      1.93513      6.86698         0.785638     -0.783698     -0.000136
O       7.64480     13.27172      6.92950        -0.603716      0.740559     -0.488050
O       7.51453      1.81801     10.99296         0.481507     -0.154229      0.174564
O       7.58171     13.43690     11.07601         1.367624     -0.045003      0.109701
O       7.60309      5.70387      2.60960        -0.487412      0.516114      0.224602
O       7.59342      5.71565     15.33069         0.115806     -0.027623      0.166325
O       7.57280      5.66242      6.87645        -0.066928      0.550179      0.176020
O       7.59554      5.84426     11.18227        -0.010723     -0.323556     -0.229641
O       7.59245      9.52554      2.77568        -0.512223     -0.156158     -0.196150
O       7.55787      9.58290     15.35939         0.682673     -0.480042      0.031401
O       7.60023      9.38647      6.65895        -1.145529      0.190057      0.111224
O       7.59593      9.30905     11.11780        -0.451286      0.514298     -0.430897
O      11.37609      1.93963      2.57393        -0.093463     -0.460258      0.326625
O      11.34061      1.94686     15.27443         0.441825      0.145648      0.141945
O      11.48013     13.46442      2.55781         0.057150     -0.719449     -0.198728
O      11.40545     13.28853     15.29058         0.541614     -0.222176      0.216293
O      11.31810      1.90987      6.90436         0.010746     -0.039083     -0.089527
O      11.43161     13.17856      6.79863        -0.359303      0.092334      0.139687
O      11.36763      1.98901     10.96827         0.189968     -0.229410      0.269385
O      11.41237     13.20249     11.17112        -0.830706     -0.302292      0.223227
O      11.36533      5.75790      2.42578        -1.309818      0.105927      0.658490
O      11.40185      5.65143     15.26732        -1.037644      0.245619      0.413651
O      11.35208      5.69166      6.76114        -0.628098      0.231135      0.214855
O      11.35493      5.61372     11.10862         0.659667     -0.219546      0.404033
O      11.42217      9.61475      2.63768        -0.766747     -0.450939      0.032606
O      11.33464      9.49794     15.48180        -0.642872      0.777235     -0.191177
O      11.36472      9.48769      6.79942         0.713002      0.284383      0.019721
O      11.36033      9.60340     11.12140         0.052623      0.441222     -0.035867
O       1.85960      3.79892      2.70131         0.478404      0.972301     -0.539817
O       1.85238      3.77608     15.32124        -0.152356      0.190175      0.267469
O       1.94968      0.05180      2.30783        -0.308630     -0.525339      0.421928
O       1.97110     15.18464     15.30436        -0.376050      0.380957      0.064616
O      13.28389      3.75750      2.61438        -0.307218      0.838666      0.053064
O      13.18699      3.88961     15.33925         0.720478     -0.777237     -0.162311
O      13.47751     15.17715      2.53864        -0.762378      0.042262     -0.375417
O      13.25166      0.00408     15.31092         0.232638      0.065054      0.083740
O       1.83604      3.80343      6.71425         0.026591     -0.306847      0.143972
O       1.80398      0.02337      6.69629        -0.134140     -0.180634      0.609528
O      13.11448      3.83893      6.86197         0.726123     -0.855615     -0.023281
O      13.29047     15.19366      6.86460        -0.126059     -0.250830     -0.010280
O       1.75496      3.81206     11.07924        -0.188935     -0.204403      0.031683
O       1.85590     15.14912     10.98338         0.316381      1.115165      0.724204
O      13.37103      3.84427     11.10064         0.067120     -0.514222     -0.224126
O      13.23041      0.02336     11.00937        -0.139517     -0.228760      0.583956
O       1.85565      7.55706      2.55074        -0.229293      0.186654      0.001718
O       1.99067      7.51064     15.46482        -0.422659      1.187101     -0.318129
O      13.31934      7.58670      2.67677        -0.257577     -0.065542     -0.291228
O      13.07900      7.68060     15.55667         0.612184     -1.308759     -0.927238
O       1.91624      7.53213      6.75802        -0.406353      0.686107      0.375038
O      13.27073      7.60313      6.57869        -0.111374      0.075566      0.474103
O       2.10453      7.54557     11.01790         0.065582      1.377343      0.299763
O      13.02464      7.61922     11.06832         0.668733     -0.146161      0.157172
O       2.03727     11.43609      2.52444        -0.514889     -1.013273      0.150916
O       1.77010     11.35512     15.30215        -0.136557      0.759707     -0.133644
O      13.37178     11.42831      2.62359        -0.255423      1.025740     -0.213760
O      13.19482     11.37011     15.39645         0.510305      0.234927     -0.174688
O       1.88591     11.39413      6.82066        -0.195439     -0.121361      0.061995
O      13.38816     11.32095      6.80664        -0.603573      0.464676      0.104127
O       1.82805     11.47032     11.07060         0.351775     -1.124912     -0.321456
O      13.51922     11.36926     10.99205        -0.981762      0.416510      0.133085
O       5.79782      3.88753      2.56705        -0.732564     -1.400269      0.129522
O       5.74769      3.80514     15.24973         0.428884     -0.835777      0.367401
O       5.63715      0.02794      2.50691         0.247302      0.195903     -0.032795
O       5.59320     15.16113     15.41137        -0.200145      0.039256      0.026806
O       5.75455      3.77313      6.64647        -0.649848      0.473685      0.537110
O       5.63703     15.19538      6.61522         0.400108      0.962967      0.781174
O       5.82896      3.83381     11.10640        -0.641969     -1.037026     -0.073640
O       5.61542      0.04862     10.75318        -0.332243      0.138260      1.013812
O       5.65867      7.64802      2.48853         0.540028     -0.533942      0.733592
O       5.66770      7.60210     15.25056        -0.004489      0.821785      0.268601
O       5.65884      7.60892      6.85816        -0.030775     -0.065185      0.300324
O       5.58292      7.63125     10.99495        -0.530784      0.479556      0.229789
O       5.83700     11.38126      2.54890        -0.646871      0.805216      0.430289
O       5.78563     11.42691     15.26412        -0.359285     -0.006323      0.391874
O       5.74112     11.38105      6.74199        -0.414386     -0.523951      0.029634
O       5.71906     11.47299     11.13388         0.321396     -1.566703     -0.118542
O       9.50434      3.81922      2.56651        -0.035362     -0.523097     -0.169717
O       9.37769      3.77126     15.31361         0.212866     -0.310453      0.295968
O       9.58331      0.00770      2.55135        -0.239613      0.522321      0.503920
O       9.67444      0.00522     15.35030        -0.994041      0.255892     -0.320829
O       9.40984      3.82244      6.91566         0.321338     -0.587196     -0.069734
O       9.53552      0.00062      6.70341        -0.289347      0.141263      0.333534
O       9.41115      3.75480     11.01213        -0.254222     -0.721093      0.527203
O       9.60072     15.15871     11.14624        -0.109706      0.259328     -0.063005
O       9.41569      7.63873      2.80712         0.564558     -1.935593      0.055115
O       9.49710      7.57289     15.17121        -0.281157      0.958497      0.691046
O       9.47423      7.56895      6.66348         0.130879     -0.171851      0.204269
O       9.57071      7.54826     11.03976         0.063944      0.693053      0.282464
O       9.51221     11.44317      2.62755        -0.008373      0.470596     -0.336435
O       9.43278     11.42026     15.49528         0.370630     -0.458930     -0.423266
O       9.36316     11.38477      6.83443         0.836965     -0.248432     -0.000327
O       9.27012     11.32049     10.97654         0.381882      1.344791      0.092915
