  # total energy = -7880.76741227 
CRSYTAL
PRIMVEC
    15.3600000000000000    0.0000000000000000    0.0000000000000000
     0.0000000000000000   15.3600000000000000    0.0000000000000000
     0.0000000000000000    0.0000000000000000    17.440000000000000
PRESSURE
1.42172 0.766706 -1.66554 -0.357778 -0.334293 -0.042983
PRIMCOORD
320 1
Pb       3.87269      3.82800      4.38671         0.112930     -0.217966     -0.059199
Pb       3.92016      3.82580     17.41197        -0.710619      0.088582      0.589294
Pb       3.79786      0.02452      4.30050        -0.165571     -0.155704      0.564304
Pb       3.67699     15.34047     17.35952         0.499084     -0.199399      0.515405
Pb       0.04711      3.72338      4.35152         0.084527      0.371071      0.273440
Pb       0.08633      3.97811     17.41161        -0.446821     -0.763218      0.190681
Pb       0.08542      0.01720      4.31186        -0.308284     -0.506644      0.148752
Pb      15.24333     15.31867     17.37579        -0.355805      0.464080      0.511749
Pb       3.74874      3.73297      8.73664         0.270117      0.257338      0.278977
Pb       3.87923      0.01570      8.56446        -0.246441     -0.578698      0.560204
Pb      15.16943      3.95275      8.62532        -0.000178     -0.889520      0.890188
Pb      15.19120     15.35075      8.69154         0.659639      0.049721      0.213516
Pb       3.73027      3.68422     13.10760         0.647427      0.097821     -0.660539
Pb       3.71345     15.34687     12.94572         0.356214     -0.516466      0.117743
Pb       0.04644      3.79054     13.05877        -0.785642     -0.117939     -0.058841
Pb      15.34778     15.30284     13.07010        -0.034583     -0.247094     -0.290281
Pb       3.86746      7.65571      4.33146        -0.587720     -0.250699     -0.001434
Pb       3.81102      7.56717     17.37034        -0.431232      0.269527      0.600810
Pb       0.11433      7.84013      4.35395         0.027555     -0.567272      0.031724
Pb      15.15705      7.68681     17.40929         1.014933      0.025164     -0.281570
Pb       3.84711      7.72960      8.63559        -0.158679     -0.645990      0.830180
Pb       0.05170      7.59367      8.62163        -0.479598      0.279169      0.554437
Pb       3.81279      7.55702     12.97685         0.313149      0.152805      0.110438
Pb      15.35630      7.62714     13.12008         0.145201      0.064160     -0.349448
Pb       3.81293     11.59879      4.22050        -0.428584      0.043063      0.208392
Pb       3.98481     11.61395     17.39629        -0.175411     -0.171473      0.210539
Pb       0.04141     11.55712      4.37955        -0.558029      0.264891     -0.495194
Pb      15.28794     11.58539     17.27813        -0.356067     -0.202126      0.426586
Pb       3.88641     11.53880      8.60504        -0.895138     -0.078050      0.562807
Pb      15.26251     11.42967      8.69299         0.425028     -0.065364      0.030868
Pb       3.90915     11.46127     13.15503        -0.560351      0.155612     -0.348904
Pb       0.16379     11.59126     13.05506        -0.447304     -0.236066      0.288266
Pb       7.73081      3.74914      4.36591        -0.343916     -0.323227     -0.913596
Pb       7.67597      3.88723     17.40391         0.041372     -0.092567      0.481104
Pb       7.71389      0.02487      4.37853         0.252037      0.258256      0.115507
Pb       7.57277      0.09048     17.29744         0.379433     -0.625106      0.551261
Pb       7.62261      3.81805      8.77991         0.387617     -0.110186     -0.341570
Pb       7.65809     15.21486      8.72690        -0.140702      0.770791     -0.408677
Pb       7.86768      3.91676     13.07372        -0.692619     -1.265288      0.936936
Pb       7.66501      0.13258     13.03376        -0.572255      0.346943     -0.061422
Pb       7.73144      7.51491      4.31997        -0.498249      0.786399     -0.190837
Pb       7.60419      7.79248     17.38340         0.639529     -0.471695      0.644802
Pb       7.69058      7.69091      8.64673         0.125977     -0.894684      0.655770
Pb       7.57771      7.71956     13.02161         0.327698     -0.285312      0.426852
Pb       7.64358     11.54266      4.30802         0.665842     -0.245375      0.443580
Pb       7.75715     11.51088     17.41905        -0.396986      0.640970     -0.063902
Pb       7.49452     11.58782      8.53635         0.726284     -0.280053      0.574597
Pb       7.75957     11.46024     13.01096        -0.039065      0.395580      0.627611
Pb      11.43680      3.80049      4.30196        -0.093970     -0.670592     -0.050150
Pb      11.74972      3.89335      0.04251        -0.192685     -0.239049      0.255926
Pb      11.52126     15.23671      4.32212        -0.403849      0.729140      0.224296
Pb      11.32695     15.27338      0.01710         0.545125     -0.113172      0.240341
Pb      11.37211      3.87682      8.69587         0.485717      0.082900     -0.081381
Pb      11.53300     15.34797      8.72855        -0.260016      0.135401     -0.107608
Pb      11.61800      3.71553     13.07838        -0.518390      0.375709     -0.021576
Pb      11.58107     15.34739     13.00412        -0.122001     -0.188036     -0.628736
Pb      11.50515      7.62418      4.32521        -0.256859      0.588100      0.165160
Pb      11.55608      7.66150     17.38391        -0.508726      0.007782      0.070966
Pb      11.50627      7.70657      8.71333        -0.047979     -0.632664      0.081632
Pb      11.37105      7.65482     13.09577         0.085150     -0.313191     -0.702698
Pb      11.60271     11.43807      4.26267        -0.774055     -0.006423      1.069681
Pb      11.41057     11.39392     17.35108         0.176716      0.847168      0.552315
Pb      11.64612     11.47122      8.55882        -0.799005     -0.186935      0.943249
Pb      11.55063     11.45476     13.01718        -0.262133      0.340578     -0.172714
Ti       1.92714      1.91653      2.33352        -1.195215     -0.224737     -1.087766
Ti       1.85332      1.84081     15.42311        -0.704874      0.431849     -0.374947
Ti       1.83958     13.43382      2.20814        -0.100683      0.151449      0.418058
Ti       1.90038     13.39329     15.49316        -0.744730     -0.037570     -0.964801
Ti      13.43045      1.95071      2.44806        -0.491439     -0.473709     -2.262622
Ti      13.41602      1.90995     15.37688         0.425242      0.844774      0.247719
Ti      13.34239     13.48785      2.22147         0.811035     -1.307264     -0.120633
Ti      13.31925     13.49857     15.35669        -0.018509     -0.218837      0.726880
Ti       1.86982      1.89800      6.81956        -0.706853     -0.560515     -0.327044
Ti       1.79995     13.39238      6.68491        -0.258715      0.507957      0.344368
Ti      13.33536      1.90358      6.67106         0.115604      0.007244      0.631586
Ti      13.38121     13.41292      6.67818         0.745130     -0.143791      0.931526
Ti       1.87592      1.78171     11.00908        -1.182031      0.194841      0.190903
Ti       1.88120     13.30533     10.88604        -0.188573     -0.290182      1.014322
Ti      13.43940      1.84566     11.01786         0.229680      0.089992     -0.281420
Ti      13.40892     13.30042     10.95387        -0.094498      0.923993      0.289084
Ti       1.90863      5.71607      2.30661        -0.076736      0.265293     -1.114496
Ti       1.94727      5.74800     15.31445        -0.558822     -0.090357      0.952075
Ti      13.51473      5.80624      2.50447        -0.403196     -0.858115     -0.381573
Ti      13.47091      5.81944     15.32250        -0.252846     -1.955335     -0.891471
Ti       1.95611      5.72466      6.82159        -0.570762     -0.256573     -0.898052
Ti      13.41079      5.70370      6.53487        -0.927082     -0.628264      0.739877
Ti       1.85628      5.66376     11.04011         0.607343      0.137794     -0.502271
Ti      13.36491      5.70873     11.04839         0.090653     -0.932398     -1.370567
Ti       1.86705      9.63799      2.16703        -0.433736     -0.493000     -0.587399
Ti       1.92505      9.60975     15.48598        -0.744279     -0.503401      0.290211
Ti      13.38863      9.60269      2.28729        -0.252502      1.066069      1.482124
Ti      13.38982      9.67836     15.33565         0.046221     -0.248327     -0.240354
Ti       1.93998      9.57345      6.64713        -1.114446      0.478095      1.034323
Ti      13.43767      9.42479      6.61727        -0.143976      1.510854      0.384048
Ti       1.98027      9.45444     11.03049        -0.824959      1.051953     -0.466601
Ti      13.47641      9.46722     11.15946        -0.019028      0.141852     -1.517593
Ti       5.68967      1.84114      2.29106         0.695508      1.254118      0.300520
Ti       5.68268      1.93369     15.44088         0.711204      0.185770     -1.587679
Ti       5.79329     13.51998      2.43617        -0.126397     -1.102331     -1.583503
Ti       5.76917     13.48101     15.35351        -0.203895     -0.353897      0.932651
Ti       5.74463      1.90324      6.68583         0.449336     -0.768451     -0.717178
Ti       5.60495     13.36186      6.56558         0.589648      1.527956     -0.200067
Ti       5.66000      1.93311     10.88761         1.152617     -0.260327      1.031247
Ti       5.70371     13.36454     11.04644        -0.573898      1.279679     -0.349377
Ti       5.69989      5.74112      2.35155         0.616658     -1.290441     -0.285951
Ti       5.73212      5.74832     15.45763         0.397795      0.283660     -0.796736
Ti       5.70060      5.66188      6.71609         0.636142     -0.805739     -1.097668
Ti       5.79256      5.67804     11.05466        -1.031805      0.298917     -0.638669
Ti       5.64664      9.58060      2.34435         1.230923      0.086644     -0.705636
Ti       5.68322      9.57318     15.45855         1.027918      0.446919     -0.804443
Ti       5.65895      9.47077      6.66917         1.122623     -0.337391     -0.630374
Ti       5.80438      9.60618     11.06765        -0.890501     -0.091668     -0.414896
Ti       9.56022      1.85186      2.20832        -0.033024      0.531325      1.763963
Ti       9.67942      1.95824     15.50975        -1.204005      0.157326     -1.649327
Ti       9.58560     13.38816      2.42503         0.144221      0.355939     -0.494089
Ti       9.58419     13.47391     15.24409        -0.536336     -0.390030      1.368269
Ti       9.56353      1.85361      6.70122         0.111021      0.442021     -0.433379
Ti       9.52530     13.44624      6.73622         0.358057     -0.180210     -1.285250
Ti       9.56659      1.89066     10.98140        -0.622244      0.230349     -1.107277
Ti       9.46479     13.50336     11.02946         1.427104     -0.557735     -0.905936
Ti       9.60660      5.75513      2.31235        -0.774304     -1.246877     -1.269714
Ti       9.61168      5.71355     15.53100        -0.019557      0.012836     -0.114290
Ti       9.48707      5.70276      6.59018         0.839568     -0.333915      2.843016
Ti       9.56556      5.65857     11.01419         0.939813      0.443632     -1.833953
Ti       9.52087      9.51627      2.30876         0.409890      1.157806     -0.257172
Ti       9.52720      9.59402     15.41740         0.591194      0.295011     -0.378631
Ti       9.50510      9.60346      6.82431         1.027143     -0.227343     -2.255981
Ti       9.61176      9.63567     11.05286         0.439377     -0.396707     -1.858862
O       1.76654      2.01361      0.58511         0.616658     -0.414779     -0.317714
O       1.87285      1.68287     13.59450         0.393365      0.743451      1.275751
O       1.83481     13.37477      0.41685        -0.050396      0.051904      0.622043
O       1.74259     13.46322     13.71182         0.513847     -0.537062      0.335546
O      13.46317      2.04301      0.60671        -0.271259     -0.168319      1.797461
O      13.54842      1.90829     13.58346        -0.731009     -0.317784      0.517662
O      13.40816     13.50591      0.42678        -0.333540     -0.211412      0.956182
O      13.25556     13.53076     13.57323        -0.020441     -0.160382      0.848759
O       1.91691      1.86185      5.04290        -0.267301     -0.134844      0.144218
O       1.84632     13.52516      4.88124        -0.131878     -0.388450      0.619873
O      13.27680      1.84827      4.91219         0.335926      0.033660     -0.549539
O      13.44367     13.42848      4.96124         0.103659     -0.057378     -0.767103
O       1.80616      1.86024      9.28346         0.371291      0.121733     -0.643515
O       1.80340     13.20899      9.15590         0.416302      0.301764      0.352050
O      13.44486      1.88840      9.24885        -0.055695     -0.286184      0.840512
O      13.44839     13.32222      9.14880        -0.002846      0.115062      1.535232
O       1.88985      5.69457      0.45917         0.039729      0.127821      1.988450
O       1.86706      5.79407     13.53711         0.396790     -0.101792      0.421100
O      13.50768      5.62734      0.67442        -0.110584      0.750188      0.858734
O      13.40728      5.67236     13.53380        -0.018719      0.427986      1.181581
O       1.84999      5.81435      5.06386         0.344405     -0.362305      0.156848
O      13.42245      5.65813      4.72290        -0.055924      0.302305      1.221875
O       1.78826      5.64425      9.22560         0.147343      0.374349      1.007402
O      13.38282      5.66465      9.17537         0.201795      0.309826      2.381406
O       1.79141      9.65533      0.33858         0.239294     -0.313348      2.546392
O       1.78061      9.68829     13.72277         0.416609     -0.464814      0.271425
O      13.34675      9.59714      0.53422         0.246640     -0.354552     -0.081213
O      13.30691      9.49293     13.55535         0.139872      0.216791      0.388744
O       1.90385      9.51849      4.91711         0.017835      0.130415     -0.593633
O      13.36624      9.65108      4.86939         0.154489     -0.531695      0.771287
O       1.95006      9.39300      9.23944         0.309661      0.340266      0.703750
O      13.47868      9.49313      9.35247        -0.270069     -0.217928      0.839603
O       5.62749      1.90877      0.49890         0.200060     -0.227258      0.773069
O       5.56278      2.08209     13.59312        -0.111537     -0.747212      2.109030
O       5.94574     13.39734      0.63327        -0.648970      0.089750      0.680357
O       5.60098     13.49861     13.65167         0.201550     -0.049448     -0.813595
O       5.61391      1.83769      4.86239         0.307675      0.339811      1.136439
O       5.63838     13.45608      4.77273        -0.069523     -0.301395      0.946557
O       5.74092      1.86367      9.11874        -0.170195     -0.044462      0.658085
O       5.59300     13.44939      9.20103         0.619587     -0.756212      1.519301
O       5.60156      5.59621      0.57520         0.232596      0.515986      0.202409
O       5.71849      5.90271     13.68769        -0.221065     -0.502309      0.128049
O       5.60110      5.58317      4.86772         0.485687      0.462300      1.262059
O       5.90085      5.79438      9.30745        -0.250383     -0.165458      0.114667
O       5.80013      9.78389      0.58377        -0.486620     -0.535580      0.406006
O       5.83493      9.48228     13.67142        -0.214101      0.175810      0.720739
O       5.66626      9.23677      4.92998         0.266452      1.085833     -0.061758
O       5.70765      9.71461      9.26168         0.045304     -0.524744      0.974223
O       9.50790      1.87253      0.47143         0.160584     -0.005433     -0.832956
O       9.61626      2.07088     13.67697        -0.194760     -0.597902      1.102048
O       9.61672     13.36653      0.66050        -0.206343     -0.130834      0.300983
O       9.51474     13.44455     13.50784         0.527592      0.395147     -0.235924
O       9.61742      1.73048      4.87648        -0.449540      0.486438      1.340058
O       9.33518     13.45706      4.91831         0.889430     -0.006484      1.275840
O       9.51372      1.88262      9.17285        -0.036670     -0.089090      1.032862
O       9.49080     13.51024      9.18350        -0.323344     -0.032995      1.424307
O       9.50956      5.80988      0.51175         0.399722     -0.145072      0.763875
O       9.64196      5.58881     13.75781        -0.066595      0.493305      0.192470
O       9.35223      5.69801      4.85025         0.455955      0.033605     -0.702636
O       9.58230      5.52302      9.17967        -0.285847      0.528492      2.003265
O       9.67674      9.69899      0.49789        -0.499630     -0.411923      1.219826
O       9.56170      9.56928     13.61320        -0.052513     -0.219306      0.389274
O       9.51265      9.58131      4.99575        -0.252079     -0.379769      1.469266
O       9.75446      9.65173      9.24681        -0.926323     -0.233556      0.823377
O       3.72516      1.79254      2.76835         1.492156      0.188380     -0.385773
O       3.73847      1.80376     15.96582        -0.150750      0.686689     -1.070274
O       3.80612     13.51163      2.62425        -0.500883     -0.747722      0.038503
O       3.74857     13.39690     15.73218         1.064801      0.461698      0.480160
O       0.02452      1.86963      2.77152        -1.085780     -0.146302      0.547420
O      15.30957      1.81009     15.86141         0.358554      0.739530     -0.613113
O      15.27254     13.37506      2.70202         0.397332     -0.053248     -0.220927
O      15.19581     13.42696     15.73093         0.155646     -0.124733      0.028309
O       3.83883      1.84730      7.10837        -0.789472      0.364948      0.096084
O       3.74958     13.36005      7.09974         0.776955      0.330349     -0.577498
O      15.22873      1.88618      7.08607         1.318944      0.251375     -0.237274
O      15.31069     13.34228      7.12941         0.113873      0.151090     -0.393107
O       3.74137      1.93455     11.30324         0.472551     -0.584145      0.535144
O       3.78410     13.19109     11.46166        -0.037658      0.701052     -0.380346
O      15.35935      1.89371     11.44383        -0.444772     -0.124959      0.075789
O      15.33948     13.36009     11.47583        -0.568155     -0.467595     -0.596265
O       3.75226      5.74465      2.75491        -0.140068     -0.366747     -0.082791
O       3.82703      5.81073     15.89851        -0.129293     -0.595742     -0.799738
O       0.02207      5.68900      2.78625        -0.112545      0.231893     -0.110798
O       0.00768      5.71314     15.76368        -0.376124      0.499319     -0.287375
O       3.87650      5.59473      7.19929        -0.423471      0.569661     -0.031784
O      15.27179      5.68130      7.11392         0.629881      0.299509     -0.739605
O       3.81483      5.83566     11.18895        -0.551443      0.018848      0.918361
O      15.35300      5.84553     11.53771        -0.391996     -0.693703     -0.560393
O       3.73177      9.58427      2.67660         0.178407     -0.020339     -0.247466
O       3.84137      9.60496     15.87691        -0.038951     -0.187379     -0.311742
O      15.26523      9.65946      2.76592         0.912572     -0.156666     -0.593908
O      15.27503      9.63185     15.86576        -0.386582     -0.221568     -0.516768
O       3.81156      9.51717      6.98801         0.589674     -0.055966      0.463410
O       0.03369      9.50488      6.97643        -0.626220     -0.185851      0.095281
O       3.87366      9.56564     11.52328        -0.036650      0.052196     -0.274439
O      15.35090      9.49172     11.39335        -0.618899     -0.388519      0.442229
O       7.64776      1.84380      2.68123        -0.633652     -0.016330     -0.122250
O       7.63963      1.85741     15.79953        -0.852326      0.424219     -0.256409
O       7.69691     13.49844      2.86991        -0.708707     -0.603219     -0.333279
O       7.62606     13.39365     15.68212         0.795710      0.585375      0.039225
O       7.69039      1.89388      7.10360        -0.552121     -0.360893     -0.505679
O       7.54422     13.46608      6.98218         0.119069     -0.513749      0.369934
O       7.53964      1.96054     11.45042        -0.295168     -0.013894     -0.263866
O       7.63462     13.42765     11.50989        -0.781050     -0.213653     -0.526539
O       7.64916      5.68160      2.64096        -0.416291      0.178163      0.411771
O       7.57983      5.79724     15.78621         1.320529     -0.085761      0.385638
O       7.63647      5.63642      7.24861         0.022447      0.331911     -1.165243
O       7.68708      5.50742     11.44839        -0.135603      1.085597     -0.077461
O       7.62317      9.36729      2.60926        -0.233565      0.736221      0.311373
O       7.67300      9.66308     15.89777        -0.273662     -0.437813     -0.380484
O       7.62368      9.53400      7.22690        -0.564722      0.450801     -0.573919
O       7.68396      9.61333     11.45147        -0.214323      0.088560     -0.074067
O      11.38732      1.91958      2.74307         1.687888      0.062652     -0.165035
O      11.47573      2.01593     15.74293         0.956330     -0.253331      0.280445
O      11.49198     13.37172      2.87242        -0.614937     -0.065538     -0.644182
O      11.38744     13.34271     15.96318         0.511113      1.165237     -1.253134
O      11.48014      1.96359      7.14196        -0.035847     -0.938954     -0.110004
O      11.52366     13.43437      7.05806        -0.895997     -0.195522     -0.153818
O      11.39302      1.75962     11.26115         1.875117     -0.024294      0.618078
O      11.47983     13.57358     11.35940        -0.089363     -0.141792     -0.059554
O      11.48589      5.62271      2.74058         0.396262      0.814524     -0.086733
O      11.55972      5.74913     15.86943        -0.541270      0.446327     -0.134960
O      11.48506      5.71017      7.09485        -0.097637      0.311665     -1.093918
O      11.44279      5.65270     11.42818        -0.054626     -0.388427      0.144689
O      11.46518      9.54425      2.84009        -0.078331     -0.352553     -0.647165
O      11.52244      9.56400     15.83526        -0.026438     -0.209428     -0.418351
O      11.49081      9.49106      7.16681         0.547791      0.198360     -0.684046
O      11.41493      9.50531     11.43378         1.034230      0.143704      0.767893
O       1.90878      3.76447      2.79941        -0.107564      1.138809     -0.079024
O       1.85786      3.84250     15.76898         0.552145     -0.688218     -0.754745
O       1.76811     15.29726      2.61874         0.419997     -0.115184      0.089160
O       1.72383     15.28549     15.81592         1.008721      0.719739      0.274189
O      13.51202      3.76333      2.86478        -0.548170      0.636016     -0.163153
O      13.32792      3.83968     15.80184         0.854636      0.203609     -0.324814
O      13.25934     15.25158      2.68202         0.650632      1.780765      0.217561
O      13.30346      0.11505     15.95146        -0.288328     -1.504730     -0.886313
O       1.95892      3.82072      7.24855        -0.490661     -0.762907     -0.724800
O       1.83861     15.28045      7.25369         0.133802      0.545197     -0.695432
O      13.34202      3.80918      7.18369         0.277466      0.377795     -1.310276
O      13.47406     15.32491      7.18538        -0.846783     -0.013102     -0.675290
O       1.83794      3.75065     11.61331         0.558386      0.774748     -0.963406
O       1.78757     15.18228     11.39132         0.917744      0.799429     -0.237600
O      13.38590      3.75375     11.50511         0.362250      0.029321     -0.406386
O      13.52416     15.27641     11.45944        -0.530453      0.390254     -0.440949
O       1.80731      7.67113      2.70398         0.131414      0.464219     -0.548792
O       1.92235      7.60917     15.82724        -0.257067      0.689093     -0.259155
O      13.37434      7.73191      2.93951         0.479166     -0.928656     -1.290428
O      13.44548      7.63915     15.75517        -0.067604      0.924408      0.133664
O       1.96904      7.63896      7.14556         0.042431     -0.235565     -0.087147
O      13.45358      7.57913      7.07372        -0.179712      0.311531     -0.676294
O       1.89561      7.65197     11.48217         0.006239     -0.545105      0.096204
O      13.22528      7.46944     11.47527         0.546148      2.488334      0.219508
O       1.89509     11.51063      2.82630        -0.065623     -0.166109     -0.934414
O       1.93975     11.47668     15.89710        -0.461961      0.527447     -0.477868
O      13.28541     11.54841      2.76458         0.782442     -0.929025     -0.813911
O      13.26109     11.58050     15.77866         0.621474     -0.885037     -0.737758
O       1.89018     11.50905      7.10729         0.171555     -1.145836     -0.618990
O      13.49292     11.43235      7.20819        -0.367115     -0.541102     -1.226507
O       1.77906     11.38790     11.50780         0.814494      0.366547     -0.606027
O      13.30224     11.43374     11.45055         0.275939      0.225075     -0.239677
O       5.70012      3.74627      2.80920        -0.348639     -0.193780     -0.418618
O       5.75572      3.83987     15.91476        -0.594909     -0.354526     -0.655889
O       5.68002     15.33433      2.79781         0.309621      0.735812     -0.436759
O       5.66628      0.05178     15.86686        -0.057390     -0.860246     -0.440949
O       5.77242      3.74355      7.13189        -0.282027      0.508172     -0.158198
O       5.71416     15.32874      7.03287        -0.271852     -0.779096     -0.122736
O       5.52002      3.83029     11.37296         0.309113     -0.292818     -0.121504
O       5.67595     15.30543     11.43316        -0.208346     -0.019296     -0.293729
O       5.62060      7.56589      2.70270         0.132636      1.206283     -0.191667
O       5.79482      7.68743     15.94261        -0.682812      0.239117     -0.240472
O       5.75285      7.51398      7.00940        -0.077654      1.432482      0.493262
O       5.79914      7.67673     11.60612         0.061919      0.140620     -1.130464
O       5.72035     11.48786      2.83259         0.039339     -0.434772     -0.260071
O       5.74479     11.52464     15.79171        -0.341746      0.065252     -0.134996
O       5.65266     11.42870      6.99548         0.365015      0.412065     -0.451905
O       5.73969     11.51642     11.68302         0.447528     -0.652460     -1.000821
O       9.57814      3.78454      2.72052        -0.540655      0.364352      0.004089
O       9.52339      3.84581     15.93737         0.017536      0.679046     -0.138174
O       9.62931     15.31940      2.68844        -0.165797     -0.236253     -0.027813
O       9.62536      0.01169     15.84255        -0.308504     -0.617792     -0.601454
O       9.60918      3.78010      7.08045        -0.467660      0.496707     -0.764946
O       9.63061     15.32898      7.18683        -0.342485     -0.474125     -0.376270
O       9.57187      3.70547     11.52112         0.278367      1.056367     -0.352913
O       9.36969      0.06236     11.47632         0.379125     -1.103310     -0.120942
O       9.53509      7.63523      2.72452         0.684447     -0.255737      0.186229
O       9.60020      7.77160     15.99744        -0.142258     -1.180559     -0.826538
O       9.51698      7.58637      7.11553        -0.106005      0.341283     -0.178862
O       9.57804      7.61073     11.24652        -0.521367     -0.245692      0.655975
O       9.54941     11.40417      2.89283        -0.516775      0.267244     -0.735813
O       9.58941     11.53144     15.68549        -0.129869     -0.139115      0.127258
O       9.55990     11.52827      7.16310        -0.309722      0.015655     -0.343485
O       9.63779     11.59571     11.46375        -0.364948     -0.566973     -0.114836
