  # total energy = -7881.02521274 
CRSYTAL
PRIMVEC
    15.2000000000000000    0.0000000000000000    0.0000000000000000
     0.0000000000000000   15.2000000000000000    0.0000000000000000
     0.0000000000000000    0.0000000000000000    17.000000000000000
PRESSURE
7.72725 7.28037 2.22935 0.027124 0.01747 -0.009162
PRIMCOORD
320 1
Pb       3.78546      3.82209      4.22576         0.124929     -0.023472     -0.153384
Pb       3.66713      3.78265      0.07402         0.287095     -0.366008     -0.183969
Pb       3.77556     15.14463      4.32127         0.085212      0.077672     -0.467827
Pb       3.83468     15.19185      0.03630         0.103360      0.118012     -0.421770
Pb      15.09362      3.86380      4.23814         0.576112     -0.330586      0.013454
Pb      15.12823      3.69553     16.99039         0.617276      0.787786     -0.200826
Pb       0.00647     15.18947      4.15299        -0.285266      0.075968      0.118861
Pb       0.02161      0.02689     16.91380        -0.289117     -0.199121      0.373508
Pb       3.71141      3.66573      8.53604         0.147805      0.448160     -0.235012
Pb       3.72555      0.02633      8.38930         0.876045     -0.092715      0.513941
Pb      15.06131      3.82887      8.40281         0.543745     -0.384512     -0.109702
Pb       0.10842     15.18283      8.64135        -0.575694      0.192129     -0.993178
Pb       3.76656      3.83243     12.82685         0.221170     -0.073693     -0.414548
Pb       3.80844     15.08482     12.62758        -0.070326      0.357174      0.585522
Pb       0.05149      3.55291     12.79905        -0.091390      0.802156     -0.034955
Pb      15.18261     15.11239     12.64013         0.342552      0.135912      0.372143
Pb       3.66798      7.63462      4.22571         0.762333     -0.557071     -0.159007
Pb       3.88719      7.54511      0.10309        -0.674281      0.484992     -0.245280
Pb       0.00480      7.53447      4.17240        -0.032998      0.218195      0.320236
Pb       0.19221      7.66139      0.03210        -0.695061     -0.267725      0.393446
Pb       3.69968      7.55129      8.51556        -0.169790     -0.107945      0.025669
Pb      15.17843      7.59189      8.53009         0.051326      0.078245     -0.669271
Pb       3.84814      7.66577     12.75375        -0.381170     -0.136897     -0.149728
Pb      15.15781      7.61056     12.70773        -0.076145     -0.122977      0.297664
Pb       3.75750     11.42109      4.23245         0.465519      0.047166     -0.194566
Pb       3.74575     11.37586     16.96268         0.499073     -0.280563      0.031920
Pb      15.14192     11.37522      4.23314        -0.135389      0.089042     -0.387868
Pb       0.04209     11.42339      0.00897        -0.506507     -0.295122      0.068731
Pb       3.80822     11.31728      8.39710        -0.359123      0.431130      0.683911
Pb      15.09103     11.33849      8.50052        -0.109415      0.064284     -0.370773
Pb       3.83002     11.34767     12.72507        -0.083329      0.084783     -0.457434
Pb       0.01827     11.45140     12.55754        -0.336491     -0.579786      1.054170
Pb       7.61454      3.76745      4.17209        -0.055787      0.278479     -0.233053
Pb       7.57121      3.77297     16.93398         0.345771      0.045638     -0.223460
Pb       7.60792      0.11123      4.24460        -0.094577     -0.405086      0.020587
Pb       7.53697      0.02370      0.01004         0.091894     -0.138143     -0.257932
Pb       7.57112      3.89648      8.40999        -0.057964     -0.078288      0.221633
Pb       7.54261     15.16025      8.39370        -0.108574      0.012243      0.037298
Pb       7.51790      3.70242     12.67395         0.008688      0.452507      0.496466
Pb       7.68126      0.09910     12.66132        -0.839733     -0.491061      0.567935
Pb       7.51180      7.67347      4.43083        -0.222936     -0.173976     -1.038045
Pb       7.48481      7.49595     16.92356         1.015918      0.121458      0.239153
Pb       7.63816      7.54319      8.54662        -0.179271     -0.004862     -0.328194
Pb       7.73643      7.51226     12.82581        -0.588327      0.190193     -0.241249
Pb       7.66308     11.42621      4.14374        -0.420892     -0.327673      0.090625
Pb       7.68216     11.32589     16.97949        -0.473501      0.231557      0.063033
Pb       7.53945     11.32078      8.34139         0.322434      0.361254      0.376941
Pb       7.56372     11.24656     12.74553        -0.459159      0.302616      0.318856
Pb      11.46920      3.62087      4.25322        -0.459015      0.561522     -0.278648
Pb      11.45339      3.86079      0.01204        -0.370561     -0.047062     -0.526094
Pb      11.32739      0.02341      4.24764         0.437454     -0.149823     -0.377247
Pb      11.33875     15.14643     16.90075         0.248373      0.161237      0.634820
Pb      11.29487      3.75806      8.48120         0.241362      0.297741     -0.128321
Pb      11.32022     15.14343      8.55295         0.113902     -0.141244     -0.411993
Pb      11.45033      3.80955     12.76440        -0.419804      0.168879     -0.056046
Pb      11.35260     15.14609     12.85702         0.171468      0.062864     -0.230114
Pb      11.39045      7.64514      4.28361        -0.046312      0.054169     -0.678462
Pb      11.31252      7.52828      0.03035         0.120089      0.042443      0.093542
Pb      11.35709      7.60510      8.33289         0.294981      0.137778      0.628616
Pb      11.29588      7.46451     12.63703         0.860434      0.493409      0.376672
Pb      11.43463     11.50250      4.21452         0.050038     -0.312286     -0.340471
Pb      11.30088     11.33007      0.11150         0.464060      0.084324     -0.028581
Pb      11.33582     11.38119      8.53778         0.127709     -0.071457     -0.417877
Pb      11.47992     11.38753     12.99040        -0.047933     -0.471078     -0.640698
Ti       1.89325      1.88832      2.24325        -0.050256      0.045106      0.283579
Ti       1.90040      1.87509     14.98762         0.633060      0.086482      0.406374
Ti       2.00334     13.32403      2.17224        -1.203050     -0.528540      0.711012
Ti       1.89911     13.26044     14.99933         0.558096      0.443573     -0.609489
Ti      13.30757      1.96876      2.15770        -0.185830     -1.277803      0.530665
Ti      13.29582      1.87821     14.93134        -0.856457      0.044686      0.129643
Ti      13.39356     13.36848      2.25537        -0.748416     -0.248282     -0.349275
Ti      13.30049     13.24599     15.08757         0.288425     -0.594656     -1.020110
Ti       1.85642      1.88172      6.42291        -0.851629      0.361960      0.096728
Ti       1.86242     13.30008      6.49452        -0.880269     -0.602346     -0.881635
Ti      13.22713      1.84098      6.46617         1.179485     -0.105599      0.051504
Ti      13.21987     13.32962      6.49684         0.575048     -0.179462     -0.917174
Ti       1.92442      1.92361     10.68749        -0.248729     -1.203345     -0.391017
Ti       1.86375     13.21703     10.64478         1.455860      0.657295      1.212866
Ti      13.24118      1.91329     10.74096         0.306522     -0.553821      0.132833
Ti      13.16531     13.29156     10.74296         0.214437     -1.056071      0.089027
Ti       1.91720      5.63272      2.28246        -0.240075      0.314076     -1.241877
Ti       1.93145      5.74069     15.05160        -0.254530     -0.788957     -0.832234
Ti      13.29051      5.74516      2.23694        -0.226899      0.318366     -0.385033
Ti      13.38455      5.72333     15.01129        -0.625197      0.147343     -0.146784
Ti       1.88742      5.65777      6.48970        -0.865466      0.649190     -0.495730
Ti      13.27877      5.69137      6.41742         0.536858      0.124628     -0.575418
Ti       1.86798      5.65786     10.74068         0.860849      0.834065     -0.280904
Ti      13.34863      5.61782     10.70727        -0.932227      1.595736      1.497238
Ti       1.88439      9.53338      2.30340        -0.202804     -0.669970     -1.659933
Ti       1.83740      9.48907     15.02354         0.545932     -0.213836     -0.319647
Ti      13.23993      9.46428      2.24455        -0.151132      0.934724     -1.157039
Ti      13.24716      9.43707     15.04845         0.606697      0.964365      0.112773
Ti       1.85151      9.54322      6.42556        -0.921337     -1.096201      1.545394
Ti      13.29118      9.51720      6.45461         0.138863      0.043092      0.152118
Ti       1.82840      9.42204     10.66795         1.109163     -0.032092     -0.493308
Ti      13.21059      9.46801     10.73173        -0.135123      0.074128     -0.601733
Ti       5.70055      1.87208      2.18574        -0.632734      0.455052      0.232259
Ti       5.64625      1.88235     14.96246         0.316621      0.299751      0.708700
Ti       5.72783     13.30690      2.26386         0.336434     -0.830539      0.762792
Ti       5.71020     13.30409     15.00317         0.164152      0.221625     -0.553484
Ti       5.68734      1.96186      6.39196        -0.224527     -0.805301      0.314838
Ti       5.65555     13.25644      6.42638         0.118185      1.575188      0.448374
Ti       5.70137      1.93280     10.64344        -1.134508     -0.889110     -0.086852
Ti       5.67045     13.31169     10.65570        -0.719609     -0.380580     -0.095787
Ti       5.73112      5.66666      2.19662        -0.303705      0.114005      2.676638
Ti       5.62825      5.64582     15.05555         1.520956     -0.970744     -0.987788
Ti       5.61468      5.69500      6.52224         0.243625      0.859561     -0.637086
Ti       5.64294      5.69191     10.82200        -0.105527     -0.505277     -1.131158
Ti       5.67641      9.45629      2.24051         0.960382      0.521547      0.419232
Ti       5.70702      9.45987     15.03249        -0.226875      0.414789     -0.339376
Ti       5.61098      9.47574      6.47636         0.664721     -0.473435     -0.435235
Ti       5.73834      9.44930     10.64182        -1.088979      0.161905     -0.198595
Ti       9.50424      1.92854      2.14682         0.437150      0.000046      0.660568
Ti       9.49461      1.85811     14.98729        -0.326194      0.803851      0.134323
Ti       9.48914     13.33757      2.28344         0.511181     -0.705493     -1.184603
Ti       9.48052     13.25671     15.02572        -0.532770     -0.066985      0.286434
Ti       9.50725      1.87693      6.48674        -0.760406     -0.130493     -0.894954
Ti       9.45938     13.28804      6.43684         0.324477     -0.136890     -0.406401
Ti       9.50340      1.90570     10.68707        -0.753239      0.748869     -0.341580
Ti       9.42716     13.25530     10.88847        -0.271577      0.058827     -0.790804
Ti       9.49035      5.73384      2.27092         0.290392      0.221996     -0.951749
Ti       9.52063      5.65017     14.94604        -0.303174     -0.583220      0.814453
Ti       9.50460      5.71995      6.39144        -0.392489     -0.431614      2.186073
Ti       9.42408      5.67579     10.74411         0.743101      0.473380     -0.571292
Ti       9.43007      9.45323      2.21107         0.347115      0.408915      0.222495
Ti       9.50275      9.41561     14.97818        -0.723971      0.013971     -0.937841
Ti       9.46063      9.48370      6.37300         1.327578      0.689914      0.466886
Ti       9.45982      9.58664     10.70686         1.098100     -1.598477      0.401565
O       1.73229      1.95028      0.46703         0.272520     -0.262343     -0.432193
O       1.99307      1.95513     13.22080        -0.563806      0.041866     -0.208266
O       1.98576     13.30204      0.40662        -0.200642     -0.101064     -0.387826
O       2.04145     13.28441     13.21453        -0.448857     -0.299926      0.232435
O      13.31993      1.91279      0.38369        -0.097040      0.041528     -0.079807
O      13.20624      1.84331     13.11739         0.165674      0.317627      0.313978
O      13.43679     13.40715      0.47005        -0.504474     -0.364565     -0.366572
O      13.17966     13.09182     13.23669         0.424872      0.671600      0.835720
O       1.79675      1.90817      4.63114         0.301889     -0.445843      0.432193
O       1.95849     13.27538      4.65088        -0.484601      0.211485      1.147060
O      13.18919      1.87355      4.65983         0.231045      0.180175      0.652483
O      13.19867     13.39378      4.63289         0.429248     -0.578039      0.882279
O       1.87874      1.83554      8.84914         0.091244      0.180023      0.887135
O       1.97286     13.24028      8.91449        -0.362524      0.387165     -1.276981
O      13.21000      1.88263      8.97165         0.276248     -0.009648      0.061729
O      13.08869     13.25951      8.96175         0.311345      0.313308      0.322515
O       1.78968      5.63507      0.44320         0.714368      0.195968      0.859127
O       1.91361      5.75698     13.23282         0.177325     -0.308561      0.604703
O      13.33817      5.81393      0.44366        -0.256999     -0.275549      0.071945
O      13.20085      5.72617     13.23790         0.297854     -0.417093     -0.159425
O       1.79687      5.71096      4.66938         0.341163     -0.229311      0.232109
O      13.34094      5.60010      4.60449        -0.198532      0.289522      0.581995
O       1.97472      5.75696      8.93925        -0.317107     -0.401137      0.094052
O      13.33896      5.68406      9.00057        -0.085416     -0.170835     -1.932329
O       1.98546      9.47732      0.44339        -0.401238      0.029570      0.923391
O       1.81412      9.38374     13.24063         0.137514      0.250325      0.004963
O      13.15909      9.49495      0.41994         0.299775     -0.214237      0.810226
O      13.29658      9.61316     13.27246         0.089397     -0.119444     -0.381717
O       1.90254      9.57781      4.66078        -0.101837     -0.216691     -0.854888
O      13.33054      9.62446      4.68636        -0.203728     -0.323749     -0.445373
O       1.88324      9.44863      8.85416        -0.181127      0.070281      0.885827
O      13.30949      9.54951      8.91057        -0.256932     -0.314129      0.543117
O       5.71882      1.79428      0.41893        -0.018537      0.481884      0.700436
O       5.59303      1.82451     13.19725         0.334933      0.253971     -0.615902
O       5.68771     13.26476      0.52114         0.097664      0.174419     -0.642330
O       5.59839     13.45950     13.20899         0.437399     -0.613061      0.573352
O       5.68466      1.91344      4.59683        -0.078804      0.101100      0.477576
O       5.70524     13.32437      4.67462        -0.419382      0.100312     -0.436790
O       5.61425      2.07525      8.86063         0.226582     -0.538000      0.112663
O       5.67740     13.22596      8.86170         0.065416      0.038337      0.083534
O       5.70984      5.68789      0.49156        -0.000038      0.004897     -1.963158
O       5.72947      5.54842     13.28220        -0.471999      0.265429     -0.869682
O       5.55106      5.69342      4.73385         0.467625     -0.051057      0.580149
O       5.64985      5.72413      9.00764         0.152852     -0.283447     -0.092309
O       5.77370      9.58588      0.46008        -0.307863     -0.469017     -0.437959
O       5.82996      9.35763     13.24384        -0.283516      0.220882     -0.088023
O       5.64776      9.46130      4.69436        -0.164319     -0.045995      0.411425
O       5.80064      9.54286      8.81420        -0.477931      0.038542      0.564405
O       9.59023      1.95602      0.38614        -0.195381     -0.329591      0.086001
O       9.54240      1.88015     13.19360        -0.157788      0.055622      0.010648
O       9.53439     13.32414      0.45591        -0.090790      0.003975      0.429610
O       9.47336     13.28071     13.23665        -0.078376      0.179196     -0.533919
O       9.50745      1.86092      4.62372         0.010716      0.269267      1.375538
O       9.52327     13.32601      4.65517        -0.060659     -0.132261     -0.200174
O       9.35341      1.92442      8.87573         0.574313     -0.022113      0.475593
O       9.41461     13.27244      9.10907         0.209829      0.190445     -0.217766
O       9.50153      5.74425      0.42716         0.013787     -0.113865      1.188779
O       9.59313      5.69787     13.14410        -0.297651     -0.102698      0.056403
O       9.37096      5.67900      4.69900         0.398115      0.079362     -1.580406
O       9.31154      5.77982      8.92369         0.559060     -0.552057      0.554730
O       9.39353      9.44191      0.41435         0.347025      0.031673     -0.595774
O       9.46336      9.47278     13.11308        -0.415259     -0.224046      1.232829
O       9.40041      9.45342      4.62712         0.670517      0.019829     -0.607208
O       9.53792      9.46619      8.94332        -0.335075      0.298723     -0.724344
O       3.75114      2.00302      2.39607         0.450585     -0.949987      0.554912
O       3.80703      1.77517     15.41784        -1.441796      0.746572      0.007130
O       3.81364     13.27789      2.61367         0.279605      0.066402      0.174717
O       3.86667     13.33253     15.40176        -0.858945     -0.133705      0.062232
O      15.18042      1.88506      2.61545        -0.741363      0.171890     -0.145373
O      15.16885      1.85913     15.25887         0.381344      0.438695     -0.091408
O       0.07561     13.29718      2.48957        -0.569407      0.225837      0.596231
O       0.01787     13.22549     15.27148        -0.261744      0.256483      0.273573
O       3.75403      1.96522      6.69613         0.297721     -0.380577      0.238545
O       3.72211     13.15499      6.68872         0.346897      0.501176      0.497762
O      15.13483      1.84646      6.89216         0.122983     -0.185906     -0.193616
O      15.12325     13.37037      6.98504         0.435675     -0.059832     -0.365924
O       3.71355      2.00992     10.99417         0.787434     -0.020754     -0.055598
O       3.74841     13.16162     11.03354         0.663095     -0.116627      0.254565
O      15.18188      1.77603     11.15673        -0.258725      0.021735     -0.188550
O       0.01492     13.34659     11.09634        -0.917686      0.011820     -0.405261
O       3.80088      5.65298      2.56021        -0.355732      0.437466      0.065487
O       3.85200      5.58958     15.48116        -1.960144      0.304333      0.100728
O       0.01269      5.67080      2.55092        -0.824993      0.010221      0.416502
O       0.05439      5.59582     15.31678        -0.447909      0.801384      0.038607
O       3.70355      5.76739      6.77809         0.888276     -0.254579      0.359716
O      15.17481      5.72155      6.81238        -0.272437     -0.631700      0.380012
O       3.81718      5.60385     11.15899        -1.084418     -0.407153      0.248303
O       0.03658      5.84929     11.04712        -0.573748     -0.119707      0.139933
O       3.82362      9.51601      2.51284        -0.946843     -0.123272      0.541968
O       3.82042      9.57215     15.32490        -0.082719     -0.338127      0.068028
O      15.16430      9.42223      2.59805         0.454938      0.202495     -0.108457
O      15.18555      9.47166     15.47098         0.388964      0.050309     -0.155890
O       3.72503      9.53770      6.80398         0.425182      0.131335     -0.204305
O      15.12072      9.41372      6.82371         1.015714      0.563262      0.220322
O       3.77337      9.49845     11.10230         0.716531      0.316441     -0.065222
O      15.16853      9.30198     11.01744         0.366176      0.437425      0.117549
O       7.59543      2.01501      2.50266         0.311624     -0.301319      0.155396
O       7.55790      1.88876     15.38986         1.010615      0.154503     -0.331578
O       7.62112     13.24443      2.63158        -0.536459      0.390637     -0.067432
O       7.63216     13.33315     15.48742        -0.525612     -0.183086     -0.460972
O       7.57190      1.78283      6.67961         0.102066      0.630351      0.221354
O       7.54457     13.42447      6.70631         0.479409     -0.547223      0.496328
O       7.55365      1.83084     11.03015         0.173715      0.083131      0.121350
O       7.46456     13.45878     11.10670         1.558445     -0.194517      0.264814
O       7.59813      5.73508      2.59783        -0.226542     -0.433691      0.123309
O       7.55547      5.66384     15.28098         0.717614     -0.167161      0.380429
O       7.59262      5.77597      6.86633        -0.420019     -0.223905     -0.352519
O       7.55636      5.66465     11.13365         0.204735      0.168208      0.245417
O       7.59443      9.43886      2.64098        -0.891910      0.050748      0.136652
O       7.59420      9.44494     15.32552         0.156992      0.023715      0.214425
O       7.67230      9.47705      6.61354        -2.375299      0.076047      0.964073
O       7.55623      9.39648     10.93983         0.398071     -0.361347      0.568771
O      11.43358      1.81163      2.66114        -1.026924      0.675705     -0.666063
O      11.37638      1.97609     15.34673         0.508296     -0.672701     -0.189405
O      11.39292     13.19659      2.52009         0.162911      0.453193      0.209852
O      11.38148     13.26737     15.42077         0.261011      0.176911     -0.163740
O      11.36767      1.88063      6.93745        -0.171213      0.104794     -0.224899
O      11.34915     13.22866      6.83785        -0.073602      0.621905      0.264607
O      11.34361      1.97877     10.98967         0.774548      0.256187      0.135062
O      11.33582     13.08907     11.18121        -0.194771      0.641868     -0.103432
O      11.40721      5.78340      2.60444        -0.454506     -0.128434      0.024258
O      11.40680      5.82509     15.42662         0.110042     -0.851423     -0.403831
O      11.41129      5.71240      6.82916        -0.676057     -0.533352     -0.051476
O      11.36549      5.53248     10.99765         0.309548      0.266934      0.210242
O      11.33775      9.46893      2.55585         0.586260      0.237314      0.405996
O      11.32783      9.50552     15.26658         0.435588     -0.440714      0.406792
O      11.45795      9.46378      6.76456        -1.468115      0.044789      0.263220
O      11.37249      9.71861     11.02050        -0.198933     -0.465556      0.158212
O       1.90900      3.77592      2.62226        -0.428732      0.105646      0.073395
O       1.88838      3.81784     15.42543         0.248849     -1.125265     -0.384842
O       1.92189     15.15911      2.65763         0.115645      0.665548     -0.303375
O       1.78798     15.17264     15.37718         0.659060      0.199027     -0.260619
O      13.14658      3.83841      2.53278         0.624235     -0.505607     -0.059559
O      13.34023      3.77574     15.28065        -0.412277      0.250777      0.150325
O      13.21639      0.05190      2.57742         0.657603     -0.637681     -0.060967
O      13.32395     15.19733     15.29893        -0.372877     -0.322161     -0.033651
O       1.85675      3.73715      6.80475        -0.251584      0.798062      0.122467
O       1.90367     15.18550      6.93341        -0.082881     -0.265559     -0.685688
O      13.31507      3.75982      6.77191        -0.400366      0.261533      0.364342
O      13.22651     15.18622      6.83128        -0.350800      0.240959      0.349786
O       1.76799      3.78223     11.00876        -0.183965      0.076348      0.426907
O       1.99931     15.19072     11.12337        -0.843227     -0.220285     -0.694303
O      13.42763      3.79971     11.05171        -0.003918     -1.043675      0.384200
O      13.18378     15.12825     11.18506        -0.100726      0.520094     -0.341187
O       1.87661      7.58064      2.60801         0.218900     -0.042697      0.034368
O       1.99208      7.59638     15.47886         0.003178     -0.182222     -0.169680
O      13.24435      7.63265      2.69403         0.287872     -0.732416      0.056122
O      13.36050      7.62660     15.25243         0.013166     -0.824839      0.361367
O       1.76470      7.60459      6.90562         0.771055      0.090965     -0.589881
O      13.27428      7.53468      6.76070        -0.088368      0.502323      0.092956
O       2.11197      7.56331     11.07152        -0.721524      0.194215     -0.080458
O      13.17012      7.59267     11.15970        -0.023023     -0.174465     -0.341423
O       1.81560     11.36231      2.49650         0.486371      0.940007      0.425063
O       1.86878     11.35913     15.30992         0.351515      0.559271      0.325129
O      13.32565     11.35914      2.61520         0.027364      0.859111     -0.051893
O      13.34767     11.38114     15.49204        -0.597850      0.355240     -0.034079
O       1.70375     11.38383      6.84862         0.345060      0.236110     -0.147857
O      13.24883     11.44586      6.85951         0.444108     -0.452432     -0.053158
O       1.87144     11.34940     10.95828        -0.486016     -0.372110      0.410104
O      13.37044     11.36003     11.09495         0.439578      0.551101     -0.189100
O       5.55945      3.77907      2.59869         1.038403      0.324001     -0.042185
O       5.71119      3.76161     15.44240        -0.396690     -0.448352     -0.030064
O       5.74690      0.00858      2.64571        -0.378424      0.018416     -0.164921
O       5.68335      0.08994     15.50880         0.430198     -2.145981     -0.375222
O       5.65059      3.85903      6.87590         0.227232     -0.815112     -0.322898
O       5.63295      0.04530      6.87999        -0.556472     -0.153133     -0.418584
O       5.61162      3.71104     11.13284         0.762692      0.735158      0.244749
O       5.48999     15.18376     10.96770         0.312003      0.608962     -0.356726
O       5.65739      7.57940      2.71059        -0.137631     -0.079202     -0.589457
O       5.61427      7.49933     15.40800         0.120499      1.552635      0.117652
O       5.59475      7.62810      6.91141         0.437286      0.065780     -0.423631
O       5.59599      7.50699     11.11974         0.412840      1.595219     -0.031027
O       5.69306     11.38681      2.69051         0.076389     -0.019154     -0.170939
O       5.76590     11.40675     15.22380         0.007979      0.033144      0.172854
O       5.68453     11.44827      6.78440         0.255821     -1.601397      0.066968
O       5.79633     11.31851     11.06554        -0.295203      0.390906      0.161747
O       9.52593      3.81481      2.53956         0.190592     -0.227525      0.281586
O       9.52542      3.79404     15.37149        -0.126077      0.092427     -0.178379
O       9.41402      0.00813      2.63445         0.280034      0.495616     -0.471994
O       9.42972     15.17853     15.30381         0.755993      0.349969      0.093019
O       9.50587      3.76401      6.79892        -0.250449      0.444406      0.024423
O       9.50976     15.15422      6.85048         0.187714      0.685744      0.269134
O       9.39957      3.82894     11.15542         0.017884     -1.165662     -0.433833
O       9.55863      0.09365     11.15419         0.115675     -1.474230     -0.029496
O       9.51985      7.63028      2.63369        -0.147809     -1.177820      0.198018
O       9.34544      7.47462     15.35695         0.577068      1.716064     -0.384352
O       9.52811      7.60701      6.80442         0.015631     -0.300824     -0.170028
O       9.57555      7.62601     11.07454        -0.506912     -0.556976     -0.065497
O       9.43506     11.35378      2.45735         0.091720      0.629667      0.513181
O       9.54017     11.34811     15.27986        -0.557248     -0.023005      0.327747
O       9.52110     11.42304      6.75108        -0.408926     -0.568635      0.339723
O       9.29808     11.37717     11.12119        -0.306699      0.953185      0.012850
