  # total energy = -7867.72602328 
CRSYTAL
PRIMVEC
    15.010000000000000    0.0000000000000000    0.0000000000000000
     0.0000000000000000   15.010000000000000    0.0000000000000000
     0.0000000000000000    0.0000000000000000    16.400000000000000
PRESSURE
17.0513 17.1228 7.62156 0.048133 -0.063334 -0.078264
PRIMCOORD
320 1
Pb       3.77138      3.76611      4.23889         0.100543     -0.159754     -0.599805
Pb       3.77396      3.75290      0.11531        -0.226924     -0.324696     -0.841710
Pb       3.73430      0.02740      4.11147        -0.136218     -0.270710      0.007282
Pb       3.64439     14.99690      0.02399         0.481687      0.071455     -0.110939
Pb       0.02143      3.71163      4.06178        -0.426593     -0.110689      0.146760
Pb       0.04277      3.83895     16.39183        -0.124000     -0.657669      0.047002
Pb       0.08179     14.95664      4.02780        -0.703001      0.717676      0.451903
Pb      14.96166      0.02226     16.38901        -0.086951      0.075753     -0.382283
Pb       3.86114      3.76133      8.22174        -0.582249     -0.026440     -0.025442
Pb       3.76609     14.84064      8.26794        -0.280464      0.566034     -0.426753
Pb       0.10667      3.75547      8.20885        -0.470798     -0.034920     -0.057019
Pb       0.10092     14.98788      8.27531        -0.498231      0.080866     -0.291133
Pb       3.70257      3.76813     12.29169         0.476024      0.067090      0.345010
Pb       3.77310     14.96463     12.37514        -0.309297     -0.181623     -0.056755
Pb       0.04880      3.76083     12.24877        -0.912517     -0.303358      0.919401
Pb      15.00799      0.00009     12.32492        -0.411680     -0.409335     -0.019804
Pb       3.66672      7.43469      4.13431         0.514642      0.729841     -0.064540
Pb       3.69499      7.41681      0.07224        -0.052258      0.613496     -0.196271
Pb      14.84693      7.48008      4.08344         0.346653      0.033713     -0.035412
Pb      14.93038      7.55412     16.36951         0.349735     -0.486701      0.380858
Pb       3.74656      7.45123      8.22157        -0.455738     -0.160185     -0.112796
Pb      14.93231      7.45788      8.19502         0.032613     -0.160725      0.132725
Pb       3.75682      7.51048     12.32372        -0.589351     -0.453271      0.290879
Pb       0.02378      7.49683     12.32680        -0.065744     -0.353282     -0.358942
Pb       3.64111     11.37776      4.07446        -0.063054     -0.766870     -0.371673
Pb       3.69699     11.30219     16.35110        -0.030859     -0.460931      0.527287
Pb      14.89673     11.33721      4.07666         0.021134     -0.182375      0.064690
Pb      14.88660     11.19884     16.36688         0.483491      0.725655      0.539822
Pb       3.70823     11.22778      8.28858        -0.120696     -0.221525     -0.878110
Pb      14.91956     11.20732      8.27317        -0.110957      0.143958     -0.972244
Pb       3.68845     11.27012     12.35987         0.074960     -0.029610      0.212057
Pb      14.95311     11.25142     12.33895         0.410230      0.426679      0.061831
Pb       7.51535      3.61034      4.21752         0.126705      0.499830     -0.083084
Pb       7.49922      3.74265      0.04393         0.344990     -0.306934     -0.968866
Pb       7.47746      0.04870      4.16309         0.128127     -0.315517     -0.006004
Pb       7.52043      0.10323      0.07671         0.205080     -0.437158     -0.400700
Pb       7.55758      3.72989      8.20953        -0.203541     -0.053161      0.114419
Pb       7.55466     14.85560      8.27754         0.029765      0.373012     -0.507929
Pb       7.61212      3.68752     12.28384        -0.584801      0.333681      0.194456
Pb       7.54012     15.00387     12.42333        -0.148777     -0.498886     -0.611063
Pb       7.41104      7.53687      4.17782        -0.009998     -0.116332     -0.476267
Pb       7.46170      7.50670      0.07233         0.176730      0.282422     -0.225242
Pb       7.42815      7.55379      8.21115         0.651576     -0.268812      0.132811
Pb       7.46124      7.41238     12.38534         0.415693      0.387364     -0.083122
Pb       7.35818     11.29819      4.08490         0.170589     -0.358413     -0.208385
Pb       7.49885     11.21456      0.02532        -0.274613      0.272421     -0.223205
Pb       7.35578     11.17702      8.31638         0.328909     -0.213064     -0.066539
Pb       7.47370     11.16085     12.44328        -0.021999     -0.034179     -0.600941
Pb      11.27856      3.69422      4.08895        -0.046008      0.197037      0.508902
Pb      11.20999      3.72183      0.00125         0.144077     -0.181786     -0.157263
Pb      11.18770      0.06300      4.13878         0.571649     -0.437223     -0.016680
Pb      11.21831      0.05372      0.04929        -0.145049     -0.336065     -0.322277
Pb      11.27657      3.75533      8.17012         0.066607     -0.190810      0.290918
Pb      11.24275     14.92723      8.24790        -0.160880      0.318339     -0.495027
Pb      11.33096      3.76146     12.31750        -0.317170     -0.241107     -0.361548
Pb      11.29976      0.02328     12.26278        -0.414996     -0.364926      0.249572
Pb      11.19069      7.46793      4.09689        -0.613267     -0.033458     -0.089362
Pb      11.23927      7.53631      0.04138        -0.320099     -0.324317     -0.221749
Pb      11.24021      7.52844      8.18195         0.036561     -0.454308      0.172042
Pb      11.35470      7.52778     12.32404        -0.501914     -0.681491     -0.235789
Pb      11.19306     11.25346      4.12077         0.146918      0.505226      0.234058
Pb      11.25735     11.23921      0.02090        -0.482266      0.022746     -0.269221
Pb      11.13725     11.11567      8.20438         0.245036      0.442193     -0.257513
Pb      11.31961     11.20855     12.30200        -1.000250      0.234366      0.002412
Ti       1.91138      1.84978      2.05879        -1.156733      0.018564      0.373139
Ti       1.88528      1.85832     14.32871        -0.233503      0.303138      1.795410
Ti       1.75033     13.09872      1.95729         1.309578     -0.273717      1.031716
Ti       1.80985     13.11944     14.40190        -0.188770     -0.293380     -1.095319
Ti      13.09832      1.84475      2.08052         1.396086     -0.244717      0.425590
Ti      13.16691      1.82286     14.47676        -0.196633     -0.201514     -0.946288
Ti      13.08563     13.16136      2.00269         0.761982     -0.582786      0.467359
Ti      13.01815     13.06101     14.29032         1.788805      1.702399      0.773971
Ti       1.82252      1.79889      6.17895         0.557332      0.367091      0.678340
Ti       1.84868     13.11351      6.21095         0.086721     -0.598901     -0.076575
Ti      13.17184      1.88065      6.19887        -0.486377     -0.479258     -0.875013
Ti      13.10933     13.21006      6.14247        -0.014860     -0.842578      0.167479
Ti       1.83245      1.86140     10.35399        -0.142519     -0.348742     -1.103932
Ti       1.76793     13.08205     10.31988        -0.093468      0.647492      1.075064
Ti      13.08029      1.79093     10.20553        -0.158394      0.563099      0.331387
Ti      12.98907     13.06943     10.19942         1.387362      0.161017      0.621778
Ti       1.85762      5.61142      2.11746        -0.321558      0.509678     -0.524297
Ti       1.86378      5.64392     14.46239         0.651894     -0.341733     -0.548803
Ti      13.03466      5.52631      2.06549         1.524485      1.063314      0.250538
Ti      13.10360      5.55272     14.37789        -0.082471      0.516462      0.903091
Ti       1.86092      5.56038      6.13330         0.333918      0.818851      0.483285
Ti      13.13199      5.56029      6.15429        -0.061767      0.159071      0.045301
Ti       1.84359      5.61530     10.38153         1.051203      1.348001     -0.820351
Ti      13.12082      5.50636     10.36772        -0.230106      1.566311     -0.994211
Ti       1.68758      9.35240      2.07232         1.323034      0.030927      0.006059
Ti       1.81867      9.34322     14.26948         0.778422      0.520653      1.026654
Ti      12.97281      9.32003      2.11391         0.802504      0.591911      0.350446
Ti      13.15792      9.37789     14.43039        -1.081170     -0.769955     -0.091262
Ti       1.79604      9.33060      6.15763         0.540340      1.049654     -0.522680
Ti      13.10768      9.37065      6.14492        -0.011120      0.836713     -0.071520
Ti       1.84694      9.42073     10.23922        -0.008127     -2.122203      1.252022
Ti      13.16980      9.35898     10.34868        -0.500358     -1.516823     -0.746137
Ti       5.62989      1.86496      2.10980        -0.208671     -0.867773     -0.413981
Ti       5.61071      1.84507     14.37387         0.414199      1.214960      0.152518
Ti       5.58322     13.14613      2.10905        -0.529173     -0.327537     -0.458157
Ti       5.63281     13.18239     14.44486        -0.397086     -1.446469      0.268100
Ti       5.56655      1.78134      6.23760         1.173551     -0.010657     -0.501493
Ti       5.60298     13.11575      6.18096         0.153829     -0.398768     -0.054165
Ti       5.59173      1.75322     10.25301         0.205985      1.068572      0.804629
Ti       5.53864     13.03821     10.31783         1.163193     -0.360325      2.188645
Ti       5.68877      5.52849      2.00571        -0.053285      1.832437      0.734824
Ti       5.68780      5.61695     14.39551        -0.844440     -0.588548      0.627140
Ti       5.62862      5.57647      6.17206         0.330514     -0.383727     -0.066983
Ti       5.67114      5.56689     10.35376        -0.597946     -0.517116     -0.210057
Ti       5.48852      9.35241      2.15087        -0.144992      0.114553     -0.351108
Ti       5.54539      9.35964     14.52495         0.481041      0.238375     -0.747851
Ti       5.56096      9.33557      6.27151        -0.387139      0.547661     -1.189920
Ti       5.57783      9.24905     10.40648         1.414432      1.344643     -0.452240
Ti       9.40664      1.86323      2.11408        -0.992189     -0.210585     -0.034587
Ti       9.42479      1.85393     14.29450         0.214582      0.377714      1.931968
Ti       9.37117     13.14503      2.10410        -0.416796      0.432998     -0.772627
Ti       9.37461     13.13052     14.42151        -0.107923     -0.180944     -0.512416
Ti       9.34659      1.85627      6.25499         0.398150     -0.011621      0.188690
Ti       9.40587     13.13517      6.15917        -0.424594      0.294059      0.138351
Ti       9.30367      1.80385     10.29032         1.011297      0.011329     -1.035519
Ti       9.30671     13.02909     10.28202         0.294119      0.799318      0.826401
Ti       9.35703      5.57895      2.07602         0.055611      0.787773     -0.013321
Ti       9.40958      5.60006     14.47255        -0.254307      0.193620     -1.144021
Ti       9.36861      5.61549      6.22562         0.254148      0.883094     -1.011255
Ti       9.38216      5.60659     10.26240         0.592000     -0.467616      0.441896
Ti       9.24386      9.43702      2.08256         0.896033     -1.167027      0.070680
Ti       9.40441      9.34919     14.42230        -0.745582      0.398532     -0.078216
Ti       9.30634      9.43329      6.19727         0.017910     -1.546032     -0.754738
Ti       9.39532      9.29659     10.42162        -1.348416      0.233148     -0.372154
O       2.03908      1.90231      0.28173        -0.241535     -0.120198     -0.444881
O       1.74726      1.86498     12.55836         0.424467     -0.061114     -0.297847
O       1.78231     13.12307      0.15753        -0.083811     -0.174861      0.073333
O       1.80788     13.07879     12.47580         0.424030     -0.106480      1.109743
O      13.11446      1.70609      0.28177        -0.173125      0.488443      0.025234
O      13.09829      1.82689     12.63895        -0.001071      0.206797      0.203610
O      13.36476     13.15593      0.19104        -0.874435      0.106916      0.790454
O      12.96705     13.05406     12.49454         0.552828     -0.016308      0.211773
O       1.83307      1.80491      4.36396         0.254089      0.276362      0.061502
O       1.86738     13.15906      4.37266         0.469855     -0.281101      0.582443
O      13.24188      1.87624      4.32063        -0.286532      0.059107      0.935814
O      13.03196     13.18771      4.32142         0.223910     -0.334758      0.579252
O       1.70038      1.91825      8.48136         0.794007     -0.242419      1.485477
O       1.87700     13.06727      8.52354        -0.271910      0.149738     -0.189051
O      13.24802      1.83542      8.41205        -0.359691      0.070671      0.668687
O      13.18487     13.14300      8.41168        -0.513314     -0.323113      0.146575
O       1.84492      5.67225      0.20856         0.210527     -0.159581      1.289852
O       1.96574      5.70139     12.61375        -0.718062     -0.442805      0.171058
O      13.06539      5.60923      0.27489         0.103632     -0.004113      0.030114
O      13.09723      5.57845     12.56615        -0.004934      0.112282      0.507541
O       2.09292      5.57935      4.30665        -0.623418     -0.414822      0.241284
O      13.05635      5.54052      4.32998         0.094573      0.270751      0.888093
O       1.89402      5.68374      8.53615        -0.015785     -0.470602      0.102966
O      13.09174      5.57305      8.54423         0.304566      0.037036     -0.291729
O       1.89826      9.26408      0.25725        -0.543073      0.148097      0.710005
O       1.87051      9.36928     12.45172        -0.000616      0.015404      0.959025
O      13.04726      9.25659      0.29217         0.094172      0.712240      0.102180
O      13.15598      9.24260     12.61334        -0.070859      0.771498      0.016563
O       1.81518      9.43432      4.30516        -0.054891     -0.145570      1.153770
O      13.18307      9.46209      4.29549        -0.439920     -0.592540      0.885566
O       1.76559      9.26062      8.48217        -0.046711      0.393574     -0.923515
O      13.22883      9.29104      8.49269        -0.410144      0.354937      0.447356
O       5.53218      1.78740      0.22788         0.417678      0.017542      1.168518
O       5.61196      1.90129     12.56039         0.090956     -0.183799      0.011907
O       5.53441     13.10531      0.30889         0.417326      0.530531     -0.708774
O       5.58350     12.97705     12.62829         0.156157      0.221873     -0.412606
O       5.65893      1.70155      4.26037        -0.311020      0.987837      1.393678
O       5.48886     13.19928      4.33880        -0.030407     -0.511745      1.037084
O       5.65036      1.83810      8.43264        -0.167289     -0.047805      0.883098
O       5.59903     13.05084      8.58092         0.151213      0.361122     -1.411995
O       5.79184      5.74225      0.17978        -0.639881     -0.694175      0.954521
O       5.73278      5.60008     12.59685        -0.216911     -0.150137     -0.449997
O       5.68444      5.40493      4.34601        -0.467076      0.415040      0.350764
O       5.48513      5.58694      8.52015         0.607753      0.129475     -0.094681
O       5.67010      9.28586      0.27143        -0.671558      0.120054      0.774520
O       5.64604      9.34586     12.56581        -0.253781      0.303586      0.862034
O       5.65505      9.32722      4.37655        -0.222275      0.617018      0.940334
O       5.69026      9.21478      8.49759        -0.046452      0.165632      0.239067
O       9.39950      1.85746      0.31481        -0.120198     -0.252794     -0.230488
O       9.51273      1.82802     12.53335        -0.528113      0.150694     -1.307312
O       9.30119     13.27566      0.20274         0.191247     -0.721741      1.789004
O       9.48608     13.14212     12.55168        -0.620658     -0.000388      1.195576
O       9.23988      1.80807      4.39840         0.603404      0.209194     -0.105685
O       9.49314     13.17768      4.32354        -0.417174     -0.144094      0.529607
O       9.27632      1.89513      8.42996        -0.176820     -0.074319      0.247002
O       9.39790     13.11368      8.45925        -0.074165     -0.289444     -0.068646
O       9.47229      5.52494      0.20110        -0.486110      0.138613      1.507725
O       9.50457      5.60380     12.57581        -0.714197      0.006004      0.724048
O       9.43741      5.69963      4.31145        -0.257956     -0.400910      0.970721
O       9.44805      5.56487      8.44072        -0.251285     -0.164268     -0.136112
O       9.47783      9.51808      0.25761        -0.467877     -0.240073      0.967035
O       9.37286      9.34974     12.55857         0.020740     -0.232335      0.862361
O       9.22292      9.37069      4.35796         0.294814     -0.046443      0.697972
O       9.26241      9.35331      8.58723         0.545649      0.336169     -0.803628
O       3.72765      2.10406      2.30339         1.293480      0.360300      0.646793
O       3.75831      1.64864     14.60393        -0.417357      0.229040     -0.293524
O       3.64070     12.82721      2.21329        -0.619701      0.150156      0.360122
O       3.73755     13.34009     14.58065         0.115255     -0.412453      0.259384
O       0.00079      1.65564      2.21934         0.176906     -0.036791      0.371187
O       0.01922      1.97039     14.86939         0.505605      0.170439     -0.549072
O      14.97196     13.30057      2.53452        -0.103787     -0.019330     -1.149884
O      14.99295     13.00709     14.49971        -0.124171     -0.460536      0.012568
O       3.76687      1.76210      6.50044        -1.229465      0.334309     -0.124091
O       3.75927     13.08484      6.65181        -0.017160      0.268527     -0.538777
O       0.01447      1.80209      6.53406         0.037698     -0.348237     -0.415293
O      15.00345     13.14402      6.41291        -0.008135      0.153228      0.163528
O       3.71171      2.07863     10.58288         0.552369     -0.246224     -0.299134
O       3.69309     12.84282     10.58496         0.116136      0.305037     -0.241097
O      14.92747      1.73020     10.67326         0.553830     -0.180823     -0.482493
O      14.90962     13.31506     10.56260         0.465762     -0.298457     -0.176532
O       3.81081      5.39799      2.21106        -0.343797     -0.203442      0.235526
O       3.76891      5.77238     14.60321        -0.094718     -0.014097      0.451076
O      14.98111      5.81045      2.46016         0.253485     -0.348561     -0.570434
O      14.94624      5.53475     14.78388         0.488788      0.017244     -0.674807
O       3.76362      5.58182      6.49030        -0.496127     -0.523055     -0.090440
O       0.02474      5.49637      6.43767         0.128012      1.222728     -0.132673
O       3.75185      5.40981     10.65438         0.112575      0.052570     -0.217031
O      15.00333      5.71110     10.64059         0.250297      0.167903      0.111426
O       3.64269      9.49609      2.32019         0.494092      0.432604      0.189021
O       3.67860      9.21833     14.67697         0.717723     -0.254776     -0.193308
O      14.88252      9.05506      2.34912         0.146432     -0.227610     -0.290150
O       0.00854      9.54809     14.75584        -0.237713     -0.558077     -0.718891
O       3.74247      9.36948      6.58383        -0.359214     -0.002829     -0.175759
O      14.96081      9.34821      6.49199         0.704861      0.113595     -0.060795
O       3.75375      9.54690     10.43054        -0.303360      0.167671      0.439257
O      14.97514      9.12669     10.65677         0.611127      0.325353     -0.387189
O       7.50640      1.54206      2.30727        -0.663334      0.213776     -0.222552
O       7.58127      2.02045     14.59284        -0.795823     -0.243738      0.110032
O       7.43953     13.36633      2.42794         1.003068     -0.528062     -0.384045
O       7.49515     13.02140     14.65406         0.390404     -0.187936     -0.079231
O       7.45988      1.69941      6.39205        -0.084563      0.516638      0.217910
O       7.51833     13.14261      6.42070        -0.323312     -0.260538      0.080176
O       7.46548      1.59661     10.57043        -0.345024      0.035874      0.234116
O       7.51733     13.40583     10.52459        -0.705478     -0.386896      0.228337
O       7.52365      5.85250      2.30923         0.451466     -0.318298     -0.030930
O       7.54642      5.50090     14.66447        -0.066780     -0.044555     -0.020253
O       7.50022      5.59055      6.48419        -0.553923      0.360806      0.046501
O       7.53594      5.82248     10.55614        -0.440931      0.039124      0.036883
O       7.41619      9.42785      2.39549         0.639380     -0.596538     -0.262568
O       7.48745      9.50197     14.82470         0.369234     -0.160175     -0.920158
O       7.48195      9.31976      6.51917        -0.189393      0.161805      0.041756
O       7.50385      9.21596     10.64376        -0.121937     -0.658062      0.042591
O      11.23882      1.95175      2.42504         0.297164      0.563070      0.052253
O      11.29998      1.73387     14.78004        -0.463638      0.043623     -0.267927
O      11.28933     12.98917      2.37488        -0.777492     -0.427940     -0.677030
O      11.27071     13.22126     14.78639        -0.501749     -0.077844     -0.085441
O      11.26946      1.96815      6.47029        -0.412492      0.295232     -0.176283
O      11.23289     13.16946      6.50797         0.308154     -0.507857      0.081354
O      11.19219      2.03032     10.37241         1.170664      0.338184      0.456389
O      11.22136     12.90906     10.62963         0.116265     -0.361286     -0.829584
O      11.26228      5.36777      2.41006        -1.632803      0.003413     -0.219411
O      11.23385      5.72324     14.67669         1.600864      0.128237     -0.013982
O      11.28211      5.50655      6.50913        -0.433723      0.112064     -0.349074
O      11.26673      5.45172     10.59070        -0.580595     -0.378059     -0.008716
O      11.16313      9.58443      2.55019         0.450188     -0.564424     -0.883880
O      11.25396      9.41540     14.78777         0.688444     -0.380860     -0.668505
O      11.24780      9.32116      6.55946        -0.080962      0.043030     -0.296725
O      11.26543      9.52796     10.62664         0.451685     -0.249657     -0.271087
O       1.64246      3.73650      2.35493         0.384724      0.261999     -0.211172
O       1.97123      3.74460     14.69354         0.087771     -0.111087     -0.096575
O       2.11739     14.94716      2.38319        -0.481219      0.438494     -0.550121
O       1.77352     14.97994     14.64327        -0.372682      0.831962     -0.100950
O      13.27471      3.72306      2.47036         0.020384     -0.629758     -0.652914
O      12.98807      3.72245     14.78433         0.275654      0.425809     -0.458833
O      12.93175     14.99805      2.37820         0.194070     -0.002260     -0.221304
O      13.36624     14.96500     14.56753        -0.452242     -0.443710      0.186788
O       1.77219      3.72497      6.46431         1.169140     -0.698493     -0.231133
O       1.92357     14.97851      6.64706        -0.084198     -0.097628     -0.353374
O      13.28447      3.72084      6.48134        -0.523815      0.209793      0.096232
O      12.99927      0.02374      6.45115         0.494308     -0.165366      0.085336
O       1.69681      3.73930     10.70436         0.325207     -0.132234     -0.599910
O       1.98193     14.99761     10.64754         0.167649      0.029143     -0.574586
O      13.27439      3.69599     10.67917        -0.176203     -0.889665     -0.335914
O      12.85156     14.92873     10.54850         0.541196      0.892417     -0.470218
O       2.07457      7.47339      2.47119        -0.497856     -0.479007     -0.625735
O       1.69478      7.51560     14.63745        -0.131926     -0.208282     -0.069005
O      12.81483      7.42197      2.39664         0.257912      0.607388     -0.043256
O      13.25148      7.55980     14.72584        -0.407029     -1.404038     -0.530842
O       2.01177      7.49692      6.33867        -0.716359     -0.679468      0.147949
O      13.21966      7.45305      6.43396        -0.533460      0.059802     -0.163907
O       1.99678      7.52652     10.59939         0.323882     -0.731126      0.045726
O      12.97613      7.43615     10.61288         0.024568      0.499995     -0.033832
O       1.44250     11.22320      2.28661         0.686102      0.248174     -0.218869
O       2.06372     11.20909     14.60245        -0.225225      0.483202     -0.177461
O      13.41525     11.22757      2.22205        -0.768403      0.076397     -0.019966
O      13.10157     11.25860     14.71164        -0.408605     -0.429131     -0.028694
O       1.93846     11.26031      6.52797        -0.429207     -0.573230     -0.126227
O      13.09799     11.26221      6.42899         0.003823     -0.444307      0.248111
O       1.62418     11.19793     10.59767        -0.247475      0.958215     -0.355117
O      13.37451     11.19337     10.58926        -0.460134      0.703645     -0.393592
O       5.99789      3.74546      2.32453        -0.561725     -1.277829     -0.447431
O       5.51601      3.70303     14.83218         0.088348      0.654463     -0.507579
O       5.30682     14.96527      2.41208         0.025187      0.973957     -0.741599
O       5.83897     15.00302     14.54691         0.036153      0.222429      0.269396
O       5.56590      3.66083      6.48519         0.332922      0.019606     -0.168870
O       5.63279     14.91928      6.62817        -0.367315      0.162625     -0.190428
O       5.91499      3.76361     10.61615        -0.539461     -1.615313     -0.425312
O       5.44281     14.93268     10.67657        -0.348753      0.572514     -0.459305
O       5.52507      7.46693      2.42515        -0.173226     -0.007304     -0.130652
O       5.79291      7.49475     14.66285        -0.011914      0.036970     -0.229526
O       5.58908      7.42752      6.29866         0.209612      0.408101      0.594404
O       5.42784      7.42251     10.65982         0.231698      0.502195     -0.229921
O       5.66566     11.28711      2.43322         0.212794     -0.727345      0.130452
O       5.48669     11.23809     14.84314         0.134547      0.080250     -0.769267
O       5.59767     11.23428      6.62462         0.367887      0.079595     -0.493807
O       5.94662     11.18186     10.48789        -0.562632      0.535193      0.205276
O       9.16864      3.68649      2.33909        -0.161319      0.947629      0.373935
O       9.52739      3.71800     14.76929         0.142298     -0.037252     -0.657058
O       9.57924     15.00428      2.35754        -0.020082     -0.627215      0.023062
O       9.32723      0.02521     14.67034        -0.284394     -0.472637     -0.208291
O       9.15612      3.75320      6.44413         0.837575     -0.387056     -0.158525
O       9.46302      0.02044      6.52557        -0.209667     -0.864622     -0.090894
O       9.15623      3.70104     10.53399        -0.005822      0.223130     -0.027833
O       9.65055     14.98268     10.49751        -0.320347     -0.291036      0.039855
O       9.50541      7.51847      2.16992         0.420790     -0.025372      0.497121
O       9.37785      7.52702     14.78612        -0.456407     -0.361645     -0.278149
O       9.39684      7.50010      6.49411         0.012511     -0.211735      0.040739
O       9.51372      7.43627     10.43556         0.661041      0.657526      0.626601
O       9.28962     11.27891      2.40376        -0.433429      0.897005      0.006588
O       9.45094     11.23204     14.72217         0.121376      1.092906     -0.269122
O       9.45010     11.23633      6.44864        -0.157525      0.496858      0.159619
O       9.27922     11.22690     10.64386        -0.508858     -0.169952     -0.171884
