  # total energy = -7885.33695049 
CRSYTAL
PRIMVEC
    15.2000000000000000    0.0000000000000000    0.0000000000000000
     0.0000000000000000   15.2000000000000000    0.0000000000000000
     0.0000000000000000    0.0000000000000000    17.000000000000000
PRESSURE
7.83612 7.92958 2.26957 -0.007605 -0.001498 0.009719
PRIMCOORD
320 1
Pb       3.76326      3.78534      4.23202        -0.067962     -0.072965      0.025972
Pb       3.79086      3.79455     16.97532         0.542743     -0.176961      0.108303
Pb       3.76476      0.00445      4.22124         0.098769     -0.216598      0.314994
Pb       3.78443     15.18248     16.96410         0.077944     -0.134882      0.232511
Pb      15.19186      3.78875      4.21880        -0.044126     -0.074759      0.041273
Pb       0.00447      3.80312     16.96513        -0.163724     -0.286257      0.609832
Pb      15.17821      0.00204      4.25115         0.065889      0.115655     -0.028297
Pb      15.19066     15.17500     16.96738         0.056900      0.056883      0.552047
Pb       3.79629      3.79308      8.45525        -0.113144     -0.176050      0.007732
Pb       3.78832     15.16904      8.49929        -0.237824     -0.103840     -0.230117
Pb       0.00194      3.76174      8.49197        -0.280220     -0.223620     -0.143241
Pb      15.15405     15.17953      8.46905         0.106235      0.132708      0.430149
Pb       3.79051      3.75511     12.69691         0.145706      0.176408      0.272627
Pb       3.78716     15.19918     12.73460        -0.065236     -0.335202      0.100827
Pb      15.17388      3.78179     12.71323         0.086247      0.331974      0.076098
Pb      15.19093     15.19067     12.73581        -0.149902     -0.586371     -0.226091
Pb       3.77120      7.58609      4.23497        -0.159253      0.082464      0.050074
Pb       3.77164      7.59048     16.96983         0.162376     -0.312382      0.048642
Pb      15.17089      7.60040      4.23712         0.223114      0.273174     -0.051542
Pb      15.16601      7.56778     16.96390        -0.117492      0.104908      0.264538
Pb       3.78487      7.57985      8.45788         0.230756      0.022095      0.092069
Pb      15.16729      7.57424      8.47491        -0.042663      0.125318      0.161699
Pb       3.76418      7.57344     12.71898         0.151882     -0.182574     -0.162116
Pb      15.18827      7.57231     12.73598         0.016192      0.153776     -0.097990
Pb       3.75259     11.38059      4.23417        -0.042594      0.265894     -0.033381
Pb       3.81489     11.38006     16.99495        -0.253695      0.395767     -0.045514
Pb      15.19056     11.38919      4.21767        -0.043089     -0.381357     -0.206517
Pb      15.19469     11.36968     16.95090         0.181331      0.196597      0.486748
Pb       3.76679     11.37933      8.48812        -0.178441      0.127211     -0.281673
Pb      15.17862     11.37480      8.49368         0.079011      0.071205     -0.194394
Pb       3.77692     11.36076     12.70607        -0.260821      0.154115      0.500923
Pb      15.17393     11.33756     12.75436         0.087406      0.218046     -0.174151
Pb       7.57567      3.78812      4.22585         0.056301     -0.230113      0.199431
Pb       7.59078      3.78167     16.99338        -0.447957     -0.144024     -0.151299
Pb       7.57703     15.16851      4.21750         0.072163      0.114950      0.212822
Pb       7.59745     15.17289     16.96920        -0.188033      0.105591      0.332828
Pb       7.59561      3.75464      8.47397        -0.285269     -0.056392     -0.123309
Pb       7.58760     15.19099      8.48012         0.041646      0.261302      0.476675
Pb       7.59674      3.77012     12.72652        -0.086165     -0.113459     -0.140936
Pb       7.57942     15.17142     12.73202         0.130288      0.173673     -0.156890
Pb       7.58948      7.56516      4.20494         0.403266     -0.037708      0.200371
Pb       7.59570      7.59688     16.98431         0.006169      0.136424      0.252851
Pb       7.58296      7.58768      8.45807        -0.221273     -0.005003     -0.241405
Pb       7.57767      7.59730     12.70810        -0.354653     -0.433934      0.050452
Pb       7.56816     11.37411      4.23222         0.249746      0.234886      0.124449
Pb       7.57066     11.38981     16.96908         0.129282     -0.129853      0.127388
Pb       7.58468     11.39099      8.49751         0.517748     -0.169442     -0.288183
Pb       7.59384     11.38326     12.71147         0.119503      0.022752      0.530358
Pb      11.37318      3.81137      4.20492         0.157626     -0.194642      0.228744
Pb      11.37095      3.75989     16.96944        -0.090406      0.137808      0.097761
Pb      11.39636     15.17703      4.21684        -0.381800      0.153432      0.020705
Pb      11.38606     15.18705     16.97098        -0.250977      0.136489      0.320410
Pb      11.38503      3.78288      8.47338         0.413306     -0.324600      0.019883
Pb      11.37789     15.18498      8.47493         0.143012      0.134283      0.164093
Pb      11.36877      3.75431     12.72163        -0.068853      0.102312      0.126779
Pb      11.38374     15.18992     12.70900        -0.088555     -0.293421     -0.069567
Pb      11.39056      7.56642      4.20842        -0.298054     -0.048093      0.225841
Pb      11.38130      7.58645     16.96975         0.129514      0.033935      0.015085
Pb      11.37698      7.57604      8.49927        -0.090948      0.215541     -0.104756
Pb      11.38286      7.59485     12.74538         0.082982      0.001832      0.197070
Pb      11.37863     11.37229      4.21690        -0.044974     -0.089462      0.326073
Pb      11.39442     11.38521     16.94292        -0.342139     -0.246520      0.346709
Pb      11.38638     11.37361      8.48264        -0.516141      0.118736     -0.484494
Pb      11.36591     11.35030     12.69035         0.049279      0.245335      0.582491
Ti       1.89814      1.88572      2.27650        -0.551310      0.264824     -0.385455
Ti       1.87679      1.91121     15.02726         0.502915     -1.057930      0.442308
Ti       1.84819     13.31505      2.29088         0.233042     -0.224979     -1.045318
Ti       1.84181     13.29325     15.01500         1.195590     -0.631138     -1.072198
Ti      13.26846      1.86384      2.26598         0.311217      0.671085     -0.862298
Ti      13.28040      1.86008     14.99595         0.013432      0.179059     -0.000902
Ti      13.23834     13.29053      2.25300         0.976627     -0.759550      0.074462
Ti      13.24296     13.31559     14.98265         0.325846     -0.514679     -1.225120
Ti       1.85526      1.88289      6.52976         0.738381     -0.532294     -0.760021
Ti       1.85650     13.25708      6.48356         0.582989      0.887857      0.607481
Ti      13.30872      1.85479      6.47494        -0.311229      1.018111      0.775024
Ti      13.30213     13.27806      6.48154        -0.871147     -0.062854     -0.275788
Ti       1.86658      1.86671     10.78872        -0.107071      0.134280     -0.745025
Ti       1.88906     13.28477     10.73951        -0.761202     -0.021676     -0.140587
Ti      13.29871      1.89457     10.83634        -0.447186     -0.399177     -2.347430
Ti      13.24376     13.26573     10.72209         0.406270      0.911490     -0.173336
Ti       1.90301      5.71881      2.24628        -0.694213     -0.565153     -0.798291
Ti       1.89366      5.63349     14.97053         0.169070      0.705373     -0.074955
Ti      13.28549      5.69452      2.23842         0.491240     -0.704412      0.480289
Ti      13.30310      5.62037     15.00402        -0.885944      0.810702     -0.623232
Ti       1.89419      5.72378      6.51232        -0.075921     -0.917945     -0.528459
Ti      13.32197      5.68622      6.51611        -0.895072     -0.430337     -0.746814
Ti       1.87819      5.67272     10.72780        -0.001126      0.349748     -0.275085
Ti      13.23973      5.72200     10.75274         0.607075     -0.559710     -1.099636
Ti       1.95157      9.48435      2.23929        -2.029062      0.589307      1.733913
Ti       1.88850      9.42489     15.00634        -0.221783      1.089404     -0.534247
Ti      13.25684      9.46942      2.26060         1.031040      0.528223     -0.644715
Ti      13.30355      9.51742     15.03015        -0.381300     -0.718398     -1.414782
Ti       1.86180      9.46955      6.51818         0.297745      0.569179     -1.505185
Ti      13.25984      9.47101      6.52086        -0.162175      0.666313      0.296000
Ti       1.88799      9.49347     10.75321        -0.364980     -0.339947     -0.253234
Ti      13.23092      9.50297     10.75077         0.836696     -0.373322     -0.492396
Ti       5.67187      1.88603      2.30795         0.609203      0.260083     -1.608145
Ti       5.69783      1.84758     14.97030         0.101669      0.892747      0.586474
Ti       5.66242     13.31029      2.28395        -0.116013      0.027409      0.389193
Ti       5.71377     13.25625     14.99862        -1.009397     -0.148144      0.604710
Ti       5.66447      1.84458      6.51025         0.317627      0.407067     -0.170767
Ti       5.70137     13.27800      6.54064        -0.862939      0.288217     -1.424423
Ti       5.63171      1.87235     10.76334         1.435908      0.253599     -0.486513
Ti       5.65488     13.26337     10.77933         0.747572      0.903678     -0.689384
Ti       5.68858      5.70213      2.22704        -0.059175     -0.803526      0.357170
Ti       5.70127      5.70770     14.98026        -0.951252     -0.836139      0.435345
Ti       5.65351      5.65274      6.44624         0.557609      0.360816      1.335953
Ti       5.65484      5.64541     10.72921         0.137038      0.815543      1.115003
Ti       5.74628      9.49488      2.24671        -0.497195     -0.205596     -0.590444
Ti       5.65170      9.45472     15.04071         0.719450      0.883236     -0.267742
Ti       5.66749      9.51218      6.48263         0.230994     -0.954344      0.161262
Ti       5.67727      9.51392     10.76786        -0.401244     -1.516980     -0.315895
Ti       9.46368      1.88891      2.25105         0.013035     -0.523975     -0.290226
Ti       9.46410      1.88324     15.01451         0.130969      0.096387     -0.068243
Ti       9.48510     13.28014      2.25685        -0.672383      0.053117     -0.490938
Ti       9.48883     13.26298     15.01028        -0.531836      0.043170     -0.879610
Ti       9.50133      1.91386      6.51027        -0.293002     -0.653126     -1.313262
Ti       9.42448     13.33750      6.48367         1.372320     -1.065281     -0.251280
Ti       9.47753      1.86401     10.76206        -0.176854     -0.112657     -0.108292
Ti       9.45394     13.27569     10.78147         0.328580      0.083058     -0.721269
Ti       9.49605      5.65331      2.24373        -0.352658      0.573525     -0.838491
Ti       9.41884      5.71903     14.99845         0.765929     -0.618270      0.149235
Ti       9.50849      5.67964      6.53523        -0.870976      0.480343     -1.699081
Ti       9.46753      5.67685     10.74502        -0.497749     -0.467002      0.213051
Ti       9.48858      9.49437      2.24024         0.553769     -0.204225     -0.888565
Ti       9.46424      9.44335     14.99598         0.056710      0.804235      0.358558
Ti       9.48498      9.44491      6.48291        -0.264212      1.457719     -0.459077
Ti       9.43612      9.45389     10.76439         1.049372      0.378932     -1.238118
O       1.90782      1.86562      0.47675        -0.080071     -0.050185      0.059719
O       1.88107      1.91318     13.27614         0.055288     -0.330330     -1.044079
O       1.85360     13.31857      0.47699         0.108639      0.013770      0.202676
O       1.88050     13.29619     13.15239        -0.031142     -0.053537      1.118806
O      13.30954      1.89013      0.46152        -0.075785     -0.117901      0.072313
O      13.29564      1.91083     13.19779        -0.079391     -0.117512      0.261269
O      13.28360     13.24946      0.48578        -0.151181      0.041699     -0.609072
O      13.24971     13.30603     13.17013         0.135685      0.032645      0.899675
O       1.85106      1.85500      4.72973         0.229534      0.117465     -0.051533
O       1.80778     13.26564      4.73247         0.256696      0.162051     -0.779083
O      13.36937      1.94662      4.72578        -0.531206     -0.478129     -0.640229
O      13.22234     13.26938      4.67397         0.145775      0.161672      0.544183
O       1.80425      1.84227      9.02844         0.312169      0.342997     -0.328293
O       1.89867     13.30079      8.95535        -0.036856     -0.327316      0.066847
O      13.25518      1.87908      8.97295         0.311064      0.254742      1.029248
O      13.24301     13.40060      8.92248         0.086867     -0.683495      0.655937
O       1.93455      5.75140      0.41790        -0.292890     -0.253931      0.712899
O       1.81215      5.72298     13.20331         0.387522     -0.310880     -0.002228
O      13.37397      5.64913      0.47477        -0.176798      0.110354     -0.500360
O      13.22995      5.60667     13.20067         0.231203      0.346624      0.385115
O       1.90065      5.67546      4.71873         0.112261      0.093803      0.386720
O      13.24971      5.69911      4.70024        -0.051989      0.017800      0.585078
O       1.91723      5.65555      8.91793        -0.275465      0.208182      0.304040
O      13.29029      5.70865      8.89543         0.075051      0.117398      1.194798
O       1.87379      9.57424      0.52103        -0.005304     -0.531665     -1.527791
O       1.77231      9.56889     13.21802         0.635125     -0.339096      0.190569
O      13.31791      9.38921      0.45947        -0.149435      0.586171     -0.120343
O      13.23661      9.45850     13.16972         0.297549      0.145554      0.990998
O       1.78383      9.41768      4.69213         0.611371      0.301752      0.604068
O      13.25605      9.52388      4.78099        -0.058753     -0.272210     -0.902266
O       1.90262      9.55086      8.96789        -0.134061     -0.249573     -0.369467
O      13.25055      9.48207      8.92321         0.240871     -0.034234      0.749159
O       5.69434      1.93645      0.48156         0.106517     -0.053465      0.406383
O       5.68825      1.91443     13.20209        -0.068813     -0.230437     -0.540865
O       5.67925     13.30727      0.54374        -0.100849     -0.201728     -1.120134
O       5.64812     13.25209     13.25487         0.149090      0.060863     -1.465817
O       5.71919      1.83100      4.72410        -0.311189      0.165406      0.039695
O       5.66244     13.26789      4.71629         0.085367      0.023464      0.680890
O       5.73827      1.79410      8.98451        -0.274244      0.496926     -0.123273
O       5.69857     13.30074      8.99356         0.024565     -0.182290     -0.038535
O       5.72219      5.65121      0.47694        -0.273158      0.112583     -0.462910
O       5.69029      5.68979     13.24477        -0.141281      0.029964     -1.043945
O       5.63139      5.62320      4.72395         0.067287      0.249442     -1.531739
O       5.62334      5.69928      9.00719         0.073975     -0.040429     -1.515344
O       5.70153      9.45009      0.45756        -0.066371      0.085872      0.297609
O       5.67775      9.50336     13.25912        -0.029502     -0.025238     -0.519606
O       5.72885      9.43751      4.71465        -0.176320      0.242702     -0.341549
O       5.66332      9.50961      8.98839        -0.065837     -0.091732      0.144792
O       9.48836      1.82536      0.44297        -0.178490      0.370008      0.266416
O       9.52812      1.86428     13.22725        -0.076080     -0.120603     -0.062148
O       9.46790     13.23608      0.44616         0.044739      0.197829      0.375782
O       9.49792     13.32360     13.18092        -0.287907     -0.105321      0.900831
O       9.49678      1.84959      4.69635         0.133170      0.148589      0.516791
O       9.43455     13.29963      4.67836         0.273598      0.024264      0.361175
O       9.46474      1.83205      8.99291         0.034070      0.434732     -0.671848
O       9.38636     13.30023      8.98698         0.182647     -0.289362      0.073785
O       9.47151      5.65762      0.42538         0.017078     -0.002490      0.620988
O       9.45741      5.75516     13.22107         0.020854     -0.065011     -0.084831
O       9.51284      5.76594      4.67393        -0.048245     -0.368307      1.003001
O       9.48865      5.69370      8.98046        -0.286941     -0.042769     -0.682839
O       9.54823      9.45612      0.42781        -0.172421      0.153996      0.584467
O       9.47720      9.49162     13.21153        -0.060466     -0.376152     -0.347609
O       9.48718      9.57619      4.69125        -0.179990     -0.452923     -0.260041
O       9.45904      9.45118      8.94665        -0.047589      0.078644      0.920453
O       3.82475      1.87955      2.58709        -1.038234     -0.088777      0.476663
O       3.83283      1.96158     15.34811        -0.836779     -0.682150      0.054199
O       3.76873     13.30025      2.66520         0.069283      0.060119      0.130674
O       3.77871     13.23944     15.34659        -0.195517      0.189179      0.223232
O      15.13338      1.92432      2.67749         1.124747     -0.455875     -0.242133
O       0.01049      1.79564     15.39118        -0.713117      0.408769     -0.227622
O      15.19230     13.24028      2.60669        -0.846710      0.356883      0.177273
O      15.16894     13.30056     15.34969        -0.456310     -0.271857     -0.082815
O       3.79344      1.86269      6.89885         0.035172     -0.093923      0.116665
O       3.79826     13.32538      6.83811        -0.397422      0.050226      0.264851
O       0.02636      1.82493      6.86292        -1.122547      0.831307      0.241692
O      15.14813     13.29910      6.88411         0.232726     -0.376505     -0.003141
O       3.78892      1.83489     11.11542        -0.730936      0.343511      0.236380
O       3.82893     13.34202     11.05814        -0.942094     -0.250429      0.452420
O      15.16110      1.85866     11.12029         0.838103      0.203293      0.477643
O      15.16501     13.29915     11.08314        -0.087323     -0.346229     -0.008189
O       3.71800      5.58818      2.63347         1.266504      0.643324     -0.052803
O       3.80437      5.69397     15.36296        -0.540425     -0.127847      0.017576
O       0.00191      5.60826      2.63765        -0.231840      0.350577     -0.216733
O      15.17561      5.66870     15.31423         0.342534     -0.032729      0.245197
O       3.75981      5.70215      6.86654         0.296642     -0.136663      0.076812
O      15.17776      5.59222      6.82685         0.304860      0.886389      0.233929
O       3.75227      5.63244     11.13788        -0.045156      0.183758      0.143278
O      15.19547      5.71783     11.13663        -0.415507     -0.183024     -0.276719
O       3.73819      9.54676      2.60256         1.474231     -0.535613      0.223649
O       3.79249      9.47351     15.41645        -0.457435      0.068072     -0.067407
O      15.16234      9.44149      2.67259         0.149129      0.390981     -0.159013
O       0.01291      9.52136     15.32829        -0.476635     -0.066861      0.261048
O       3.70861      9.50714      6.84124         1.713239     -0.250839      0.215640
O       0.05085      9.51396      6.81683        -2.026559     -0.249522      0.780039
O       3.75091      9.43489     11.15665         0.928506      0.490222      0.062204
O       0.03354      9.41516     11.10082        -1.426875      0.566267     -0.030195
O       7.56477      1.84885      2.69650         0.702399      0.445159     -0.251767
O       7.60521      1.88961     15.32823        -0.189420     -0.112540      0.168929
O       7.51953     13.33066      2.65293         1.150166     -0.408787     -0.100881
O       7.55219     13.23870     15.37589         1.071008      0.173107      0.026009
O       7.59268      1.91209      6.86788        -0.112935      0.000174      0.189632
O       7.58183     13.28559      6.84617        -0.231067     -0.171692      0.179358
O       7.59563      1.91615     11.09645        -0.225740     -0.070322      0.423596
O       7.56450     13.28799     11.16518        -0.186336     -0.218235      0.202635
O       7.61868      5.63886      2.57585        -0.691569      0.353293      0.243293
O       7.50108      5.70651     15.33874         2.116649      0.080013      0.313350
O       7.55697      5.68819      6.84510         0.457428     -0.020490      0.203801
O       7.55253      5.62664     11.15371         0.621473      0.332996     -0.163344
O       7.62870      9.48912      2.57145        -1.008262     -0.297415      0.205548
O       7.58633      9.48500     15.40537        -0.003740     -0.239250     -0.091802
O       7.59152      9.46055      6.89889        -1.112621      0.343009     -0.033393
O       7.60864      9.41249     11.09096        -1.163805      0.517146      0.184045
O      11.36937      1.88276      2.55195         0.033530     -0.182845      0.435482
O      11.37589      1.90016     15.41957         0.276221     -0.301726     -0.275183
O      11.37841     13.28536      2.54977        -0.618783      0.051620      0.307713
O      11.36241     13.24900     15.31850        -0.168637      0.344454      0.273655
O      11.37591      1.94685      6.90038         0.494034     -0.471528     -0.224332
O      11.39222     13.32228      6.92828        -0.184997     -0.067545     -0.433406
O      11.42318      1.93584     11.08589        -0.515972     -0.370513      0.482615
O      11.34375     13.30067     11.14917         0.564141     -0.040956     -0.244092
O      11.36019      5.63123      2.59490         0.810393      0.366483     -0.112072
O      11.40366      5.67417     15.31203        -0.095521      0.232789      0.257295
O      11.33424      5.73722      6.88667         0.839024     -0.304921      0.081459
O      11.34659      5.70007     11.02993         0.791302     -0.000921      0.393929
O      11.37781      9.51993      2.60142        -0.133043     -0.335054      0.184140
O      11.36831      9.40806     15.34297         0.297314      0.272957      0.047602
O      11.30663      9.51018      6.85529         1.403344      0.056357      0.298178
O      11.37946      9.52374     11.11529        -0.158559     -0.770939     -0.100508
O       1.93174      3.74125      2.56226        -0.325590      0.596545      0.265999
O       1.83341      3.75821     15.31650         0.211727      0.536128      0.281838
O       1.84193      0.01792      2.69003         0.184168     -0.241476     -0.064286
O       1.89383     15.14861     15.41645         0.207718      0.490351     -0.305469
O      13.31187      3.73576      2.61675        -0.489979      1.232849      0.055486
O      13.25463      3.72685     15.40626         0.522732      0.561863     -0.227434
O      13.28675     15.16442      2.55291        -0.073368      0.042554      0.468613
O      13.26950     15.17079     15.35931        -0.219735      0.253327     -0.019642
O       1.94237      3.74214      6.86326        -0.240092      0.936456      0.265627
O       1.82042     15.18728      6.86062         0.484872     -0.478349      0.137545
O      13.27974      3.80486      6.83013        -0.090673     -0.072512      0.301438
O      13.34691      0.03556      6.85617        -0.567160     -0.951283     -0.341033
O       1.89825      3.78349     11.11247        -0.259125     -0.269946      0.121337
O       1.84732     15.17440     11.04652         0.291506      0.128337      0.714182
O      13.33617      3.81144     11.14741        -0.211976      0.320897     -0.166089
O      13.27405     15.17033     11.11511        -0.063232      0.090878      0.282083
O       1.83406      7.58240      2.68366         0.508518     -0.192320     -0.492874
O       1.95537      7.55953     15.32770        -0.460768      0.124552      0.136348
O      13.31121      7.59477      2.57621        -0.381146     -0.983711      0.277578
O      13.37498      7.65022     15.40387        -0.366213     -1.352410     -0.307160
O       1.90597      7.59983      6.83689        -0.348183     -0.776356      0.377576
O      13.14344      7.63281      6.85248         1.013559     -1.065007      0.182823
O       1.88891      7.58116     11.10706         0.170485     -0.332912      0.004998
O      13.31609      7.59196     11.11787        -0.418440     -0.165853     -0.081865
O       1.87892     11.46290      2.59443         0.057655     -1.376352      0.367662
O       1.85654     11.34255     15.41918         0.247444      0.662987     -0.167715
O      13.23955     11.33324      2.62388         0.200783      0.835390     -0.015526
O      13.15762     11.40042     15.31458         0.778370     -0.082187      0.198216
O       1.91348     11.40909      6.80107        -0.221003     -0.263460      0.496766
O      13.26429     11.36635      6.85005         0.106942      0.646822      0.345144
O       1.87103     11.37544     11.08589         0.230954      0.474103      0.187999
O      13.20495     11.37140     11.10530         0.605462      0.124713     -0.250914
O       5.71410      3.81072      2.63782        -0.139174     -0.047249      0.215298
O       5.71321      3.76468     15.34019         0.060299      0.306891      0.146847
O       5.70438      0.02264      2.52577        -0.323585     -0.771652      0.588829
O       5.74816     15.13342     15.34941        -0.410384      0.938294      0.050523
O       5.69754      3.78912      6.86018        -0.283563     -0.392553      0.257158
O       5.68727     15.18012      6.90720         0.144723     -0.164045     -0.077452
O       5.69988      3.80739     11.07073        -0.389550     -1.086657      0.403022
O       5.70174      0.04193     11.10834         0.060850     -1.410117      0.529606
O       5.62185      7.55939      2.59086         0.128388      0.302011      0.233250
O       5.74493      7.62348     15.39100        -0.520654     -0.785508      0.050859
O       5.69044      7.56956      6.80998        -0.379550      0.433419      0.330288
O       5.60868      7.54802     11.12646         0.381381      0.840933      0.151840
O       5.70207     11.31273      2.57586        -0.197613      0.956992      0.334243
O       5.69196     11.38319     15.38086        -0.061110     -0.410410      0.285913
O       5.56214     11.38344      6.84534         0.751976     -0.136731      0.183105
O       5.68965     11.37079     11.09918        -0.038831     -0.026104      0.214454
O       9.52203      3.75428      2.61349        -0.397123      0.398619     -0.031323
O       9.46763      3.81217     15.31651        -0.021123     -0.088209      0.132294
O       9.48913     15.19605      2.61166         0.021164     -0.511841      0.008055
O       9.44661     15.17436     15.40649         0.252388     -0.297890     -0.258706
O       9.52165      3.78270      6.77127        -0.304414      0.537852      0.582720
O       9.49000      0.01214      6.82576        -0.094599     -0.462501      0.169729
O       9.53400      3.72533     11.09990        -0.230006      1.374166      0.257531
O       9.46248     15.15783     11.00713         0.139449      0.479245      0.830999
O       9.47417      7.61027      2.61353         0.134052     -0.613383     -0.062076
O       9.50587      7.58393     15.46905        -0.402524     -0.491130     -0.543977
O       9.49043      7.61732      6.78201        -0.271239     -1.119350      0.540095
O       9.44750      7.56414     11.09536         0.266556      0.140958      0.211309
O       9.45764     11.39354      2.59484        -0.050069      0.311862      0.087030
O       9.39860     11.35348     15.33964         0.606585      0.367519     -0.005737
O       9.47184     11.37751      6.86680        -0.195643      0.889492      0.227905
O       9.54015     11.36821     11.11939        -0.729252     -0.272187     -0.021593
