  # total energy = -7861.73102685 
CRSYTAL
PRIMVEC
    15.010000000000000    0.0000000000000000    0.0000000000000000
     0.0000000000000000   15.010000000000000    0.0000000000000000
     0.0000000000000000    0.0000000000000000    16.400000000000000
PRESSURE
17.4814 17.9556 6.38527 0.091167 0.062054 0.048386
PRIMCOORD
320 1
Pb       4.02924      3.67124      4.40824        -1.036851      0.496986     -0.763790
Pb       3.84365      3.79780      0.16652        -0.143045     -0.265244     -0.922726
Pb       3.66868      0.17143      4.17016        -0.239719     -0.667012     -0.861361
Pb       3.78682      0.02280     16.35077        -0.573547     -0.194539      0.093486
Pb      14.94345      3.62864      4.06822        -0.004355      0.143129      0.111456
Pb       0.04436      3.67154     16.36246        -0.388168      0.467927     -0.241375
Pb      14.99245      0.06128      4.23606         0.252808     -0.255770     -1.093222
Pb      14.88501      0.01664      0.05836         0.324360     -0.567671     -0.471290
Pb       3.82773      3.62966      8.34590        -0.320260      0.755551      0.028066
Pb       3.85868     14.85586      8.32950        -1.107981      0.126623     -0.202988
Pb       0.10370      3.77590      8.34070        -0.270075      0.110916     -0.762279
Pb      14.97949     14.87584      8.18332         0.201740     -0.022996      0.184352
Pb       3.82140      3.75022     12.21448        -0.650250     -0.530032      0.246788
Pb       3.73655      0.01620     12.52315        -0.066366      0.039048     -0.480202
Pb       0.06766      3.67572     12.34669        -0.686470      0.301069     -0.156122
Pb       0.04228      0.02301     12.30261        -0.573084      0.187829      0.169491
Pb       3.49361      7.56725      4.09792         0.611680     -0.166758      0.079019
Pb       3.76934      7.40392      0.30126        -0.418249     -0.389062     -1.144799
Pb      14.89704      7.48799      4.13162        -0.136735     -0.029765     -0.367969
Pb      14.94437      7.55173      0.10112         0.011238     -0.322374     -0.810290
Pb       3.68838      7.56229      8.02905         0.240730     -0.072972      0.939035
Pb       0.00570      7.51816      8.24622        -0.318544     -0.201650     -0.165197
Pb       3.77312      7.59937     12.30217        -0.232992     -0.222236     -0.105541
Pb       0.08290      7.29839     12.34137        -0.463856      0.355536     -0.045271
Pb       3.52657     11.25667      4.23861         0.357909      0.072454     -0.983212
Pb       3.71048     10.98894     16.31869        -0.178842      1.498331     -0.138519
Pb      14.96189     11.23151      4.12453        -0.283999      0.020397     -0.369570
Pb      14.91291     11.39052      0.07489         0.034752     -0.181463     -0.290402
Pb       3.66737     11.06746      8.27271         0.053563      0.301096      0.310910
Pb      14.99380     11.13132      8.19179        -0.497426      0.470065      0.092879
Pb       3.75254     11.31620     12.37647         0.087259     -0.295422     -0.050905
Pb       0.02435     11.30245     12.33327        -0.863824     -0.240741      0.284266
Pb       7.52410      3.68892      4.19838         0.443193     -0.093558     -0.296553
Pb       7.57193      3.86445     16.37703        -0.333579     -0.246246     -0.293519
Pb       7.46184     14.87613      4.29423         0.477543      0.837730     -0.850117
Pb       7.30956      0.00173     16.39979         0.347522      0.275140     -0.001944
Pb       7.53318      3.64359      8.24856         0.157433      0.484120      0.012576
Pb       7.52155     14.99068      8.31122         0.397436     -0.529938     -0.315375
Pb       7.46451      3.74193     12.24577         0.185770     -0.436557      0.506178
Pb       7.61919     14.80569     12.46471        -0.333847      0.581788     -0.697111
Pb       7.23992      7.53632      4.02749         0.846983      0.195669     -0.205952
Pb       7.50152      7.48464      0.09288        -0.035898     -0.457366     -0.252535
Pb       7.49768      7.49682      8.41188        -0.420629      0.134507     -0.306919
Pb       7.60229      7.40571     12.55155        -0.331025      0.241710     -0.522826
Pb       7.44544     11.37942      4.11912        -0.000054     -0.592319     -0.504191
Pb       7.53216     11.28021      0.13073         0.033209      0.110110     -1.019500
Pb       7.43156     11.19130      8.28693        -0.569190     -0.047176      0.317994
Pb       7.55481     11.15330     12.38298        -0.627387      0.083179     -0.087041
Pb      11.13030      3.76153      4.17517         0.529904     -0.166455     -0.677879
Pb      11.32172      3.83993     16.38701        -0.272235     -0.524145     -0.273644
Pb      11.45073      0.00094      4.28584        -1.310030     -0.200843     -1.297338
Pb      11.00839     14.92402      0.16988         1.410474     -0.023630     -0.719656
Pb      11.46229      3.79856      8.12498        -0.591393     -0.369261      0.078428
Pb      11.33249     14.86276      8.27141        -0.639812      0.059468      0.499662
Pb      11.35290      3.72709     12.19592         0.185066     -0.564503      0.576879
Pb      11.29756      0.15847     12.30512         0.332471     -0.062425     -0.364259
Pb      11.19148      7.45647      4.23691        -0.029615     -0.010710     -0.916239
Pb      11.08092      7.46672      0.17549         0.601075     -0.020105     -0.632581
Pb      11.03735      7.44451      8.19687         0.788464      0.210668      0.079434
Pb      11.33391      7.29594     12.30488        -0.155327      0.658814     -0.238747
Pb      11.30830     11.30842      4.19447        -0.485191     -0.489191     -0.438310
Pb      11.21058     11.11256      0.10476         0.215453      0.543087     -0.752517
Pb      11.01462     11.15399      8.34264         1.030822     -0.013881     -0.860603
Pb      11.17147     11.32957     12.26074         0.475295     -0.555985     -0.078861
Ti       1.83051      1.89225      1.92872        -0.466881     -0.887901      0.996375
Ti       1.77480      1.83890     14.20485         1.064780     -0.017898      0.960637
Ti       1.80473     13.19441      2.11028         0.484308     -0.133321     -1.302460
Ti       1.81590     13.06582     14.43818         0.311107      1.049705      0.348932
Ti      13.10974      1.86826      2.02028        -0.226679      0.465542     -0.214795
Ti      13.07058      1.87028     14.47080         0.623733     -0.407996     -1.230210
Ti      13.02828     13.12048      2.10425         0.022106      0.128144      0.518689
Ti      13.07132     13.13225     14.23037         0.528658      0.120845      1.296129
Ti       1.87195      1.85749      6.16094        -0.293021      0.832760      0.362640
Ti       1.83208     13.17405      6.20646        -0.273880      0.245129     -0.452709
Ti      13.12268      1.75974      6.23009         0.986151      2.209528     -0.311451
Ti      13.06903     13.06315      6.19371         0.559742     -0.982241      0.275453
Ti       1.89032      1.81900     10.19328         1.216437     -0.547185      0.710009
Ti       1.84515     13.10356     10.30261         0.097436      1.100953     -0.980615
Ti      13.24585      1.86236     10.11694        -0.470446     -0.283154      1.022363
Ti      13.17840     13.09894     10.34009        -0.457974      1.494088     -0.714740
Ti       1.75150      5.56741      2.10751         0.361598      0.716550      0.299715
Ti       1.87432      5.57335     14.42783         0.406986     -0.354880     -0.944944
Ti      13.06887      5.62273      1.95518        -0.151979     -0.451259      0.474107
Ti      13.13556      5.61976     14.29157         0.371228      0.793147      0.627528
Ti       1.84037      5.56299      6.12537        -0.227906      0.290622     -0.552451
Ti      13.14911      5.59592      6.09381         0.093630     -0.206136      0.102082
Ti       1.85875      5.59574     10.22814         0.501779      1.277608     -0.211852
Ti      13.11725      5.64391     10.17870         0.931546     -0.762206      0.643151
Ti       1.81968      9.40663      1.98011        -0.409015      0.270401      0.612202
Ti       1.68953      9.30677     14.31404         0.821486      0.059444      1.492384
Ti      13.09349      9.33336      1.94202         0.065543      0.480747      0.477942
Ti      13.07123      9.36764     14.31367         0.269824      0.496180     -0.486713
Ti       1.73133      9.38483      6.20526         0.597860     -0.060832     -0.703209
Ti      12.99174      9.36630      6.08220        -0.189098      0.127871      0.277941
Ti       1.73736      9.40000     10.44541         1.665266     -1.260404     -1.366016
Ti      13.08822      9.34489     10.28941        -0.173388      0.322861     -0.140684
Ti       5.63320      1.91597      2.22541         0.624009     -0.752721     -1.334408
Ti       5.63555      1.92885     14.47878        -0.161445      0.251163     -0.447095
Ti       5.57084     13.17759      1.98496        -1.335884      0.565421      0.044409
Ti       5.56680     13.09021     14.28636         0.558614     -0.492156      1.646792
Ti       5.64075      1.82307      6.28588         1.441833     -0.018184     -0.452484
Ti       5.48401     13.17101      6.09267         0.509232     -0.609786      0.600570
Ti       5.69576      1.77326     10.27542        -0.522828      2.035580      0.918947
Ti       5.55957     13.11782     10.20345         1.604866     -0.708320      0.645869
Ti       5.51362      5.58580      2.20226         1.303874      1.116280     -0.908810
Ti       5.52968      5.55696     14.16214         0.370744      1.299000      1.293212
Ti       5.63932      5.70291      6.18652         0.140385      0.358637      0.461866
Ti       5.56841      5.64785     10.27825         0.742922     -0.171584     -0.529781
Ti       5.62251      9.47330      1.90358        -0.033908     -0.319237      1.644551
Ti       5.57747      9.25369     14.45053         0.172487      0.949186     -1.629810
Ti       5.54888      9.49479      6.04398        -0.184109     -1.021867      0.666623
Ti       5.58574      9.42531     10.38801        -0.038636     -0.389814     -0.531222
Ti       9.38751      1.84978      1.89661        -0.542534      0.016873      1.569385
Ti       9.35359      1.79209     14.39034         0.873613      2.259577     -0.594660
Ti       9.28491     13.10907      2.06323         2.195816      0.986980     -0.024449
Ti       9.42754     13.06929     14.36693        -0.444787      0.448727      0.022136
Ti       9.41221      1.80287      6.13618        -0.351202     -0.158428      1.246957
Ti       9.26988     13.04778      6.26965         0.427854      0.548146     -0.292988
Ti       9.46190      1.88027     10.23078         0.345357     -0.567792      0.464186
Ti       9.39921     13.15756     10.28452        -1.127340     -0.210022      0.067804
Ti       9.30714      5.56319      2.08661         0.363791      0.872717     -0.072508
Ti       9.43720      5.59845     14.40723        -0.604715     -0.862578     -0.120658
Ti       9.31936      5.58216      6.20411         0.191475      0.177454     -0.538395
Ti       9.33251      5.54286     10.36394         1.377928      1.677808     -1.022462
Ti       9.40711      9.36270      2.05123        -0.748443     -0.142110      0.680210
Ti       9.34325      9.30283     14.34998         0.461113      0.924988      0.190175
Ti       9.19360      9.31903      6.04634         1.365181      0.384051      0.398617
Ti       9.35961      9.36433     10.28727        -0.402558     -0.807066     -0.048341
O       1.67137      1.72121      0.14742         0.783618      0.474565     -0.199878
O       1.75477      1.96118     12.34437         0.564048     -0.310304      0.923761
O       1.85399     13.30858      0.18098        -0.124931     -0.513360      0.619848
O       1.96747     13.17278     12.57049        -0.077470     -0.526927     -0.513161
O      13.16717      1.96419      0.15655        -0.044531     -0.011751      0.218948
O      13.18576      1.91923     12.52374        -0.146865      0.156134      0.590412
O      12.93881     13.10297      0.32760         0.108977     -0.165273     -0.758032
O      13.20101     13.26268     12.43870        -0.559008     -0.472041     -0.007579
O       1.74401      1.86860      4.33633         0.930247      0.178409     -0.399742
O       2.05473     13.07684      4.31274        -0.698822      0.726987      0.314909
O      13.20265      1.77833      4.35280        -0.261959      0.033178     -0.070312
O      13.08556     13.12907      4.35662        -0.035072      0.246552     -0.221008
O       2.01228      1.92166      8.35211        -0.344419     -0.114777     -0.027001
O       1.67905     13.12673      8.39747         0.374486      0.159621      0.298235
O      13.22063      1.77944      8.29465        -0.159394      0.275815     -0.391362
O      13.20896     13.12885      8.45724         0.162076      0.185475     -0.612816
O       1.93424      5.69172      0.25422        -0.008852     -0.224807     -0.545050
O       1.87512      5.58322     12.48079        -0.021905      0.136429      0.318407
O      13.06393      5.62558      0.09759         0.157528      0.459463      1.012009
O      13.08995      5.52255     12.43860         0.223065      0.660845     -0.152496
O       1.73784      5.68776      4.19200         0.391016     -0.080844      1.217333
O      13.06422      5.62405      4.25752         0.137470     -0.042204      0.315653
O       1.84054      5.69763      8.32954        -0.299154     -0.197297      0.145493
O      13.14090      5.64323      8.39007         0.167410     -0.012730     -1.249530
O       1.74654      9.37668      0.16877         0.305841     -0.049406     -0.094508
O       1.67909      9.33348     12.50413         0.431866      0.253624     -0.513269
O      13.11011      9.42455      0.07406         0.047984     -0.256868      1.062048
O      13.25767      9.48263     12.47426        -0.711267     -0.267772     -0.260345
O       1.87007      9.50247      4.28888         0.073569     -0.548050      0.210362
O      13.07524      9.48367      4.23838        -0.074443     -0.625658      0.714031
O       1.82318      9.38645      8.42555        -0.138311      0.032507     -0.106041
O      13.19504      9.44896      8.42695        -0.413949     -0.266065      0.159976
O       5.60535      1.96380      0.18362        -0.095547      0.290117      0.761350
O       5.73820      2.03967     12.64414        -0.081817     -0.427342     -1.033036
O       5.68467     13.23493      0.12050         0.038659     -0.232991      0.309685
O       5.57860     13.07296     12.49166        -0.224550      0.457283     -0.931916
O       5.67137      1.75205      4.29880        -0.310168      0.331002      0.587550
O       5.54359     13.28179      4.25343         0.018183     -0.408973      0.297934
O       5.49979      1.97829      8.42630         0.579008     -0.830651     -0.796060
O       5.68613     13.14393      8.39428        -0.351486     -0.050687     -0.436030
O       5.48328      5.58338      0.27109         0.095446      0.131305      0.815176
O       5.50086      5.49137     12.34918         0.247099      0.944136      0.266259
O       5.75116      5.71188      4.32621        -0.603943     -0.336668      0.165801
O       5.72056      5.63489      8.39939         0.131420      0.070649     -0.632722
O       5.67849      9.32250      0.06487        -0.074865     -0.018364      0.223855
O       5.74751      9.40409     12.44084        -0.358246     -0.300182      0.240627
O       5.56268      9.54697      4.24153        -0.019885     -0.356361     -0.069477
O       5.51949      9.39739      8.41484         0.058382      0.411620     -0.168582
O       9.44890      1.75024      0.12765        -0.354073      0.567845     -0.217478
O       9.37022      1.92244     12.52797         0.021116     -0.291312     -0.415880
O       9.49787     13.11889      0.14305        -0.696565      0.155592      0.444426
O       9.37320     13.19003     12.43460         0.240939     -0.367597      0.675809
O       9.32783      1.88451      4.37984         0.073840      0.030753     -1.075344
O       9.14185     13.08033      4.40080         0.658119     -0.215951      0.227846
O       9.37641      1.89594      8.42929         0.485527      0.151203     -0.319947
O       9.41546     13.18091      8.39237        -0.516928     -0.355841     -0.181860
O       9.45496      5.72507      0.10693        -0.715919     -0.199860      0.988297
O       9.48077      5.73493     12.49822         0.014680     -0.025773      0.259878
O       9.39843      5.54285      4.29017        -0.131528      0.150123      0.118140
O       9.28886      5.50056      8.42129         0.297613      0.530912     -0.088444
O       9.39544      9.38813      0.16109        -0.503528     -0.283249      0.303140
O       9.31887      9.34412     12.46256         0.064497     -0.091204      0.050160
O       9.37765      9.53704      4.25675        -0.446344     -0.370254     -0.244697
O       9.47783      9.36544      8.34458        -0.607338     -0.271256      0.547788
O       3.66294      2.00843      2.22915         0.910938      0.478418      0.358222
O       3.73960      1.68820     14.45929        -0.903354     -0.087811      0.204780
O       3.72853     13.03061      2.13676         0.710540     -0.200830      0.274122
O       3.73811     13.39890     14.58111        -0.057144      0.000531     -0.054263
O      14.98152      1.67411      2.25764        -0.134412     -0.006780      0.267566
O      14.99052      2.14394     14.57681        -0.107489      0.052174     -0.367976
O      14.92921     13.29828      2.28180        -0.149447     -0.208193      0.143015
O      14.99002     13.02222     14.70378        -1.038202     -0.855843     -0.315201
O       3.87177      2.12555      6.30149        -2.185479      0.514444     -0.080893
O       3.66090     12.87974      6.54694         1.175418     -0.017551     -0.231620
O       0.06507      1.46129      6.28050        -1.428136      0.338116      0.693588
O      14.94434     13.45507      6.17928         0.705188      0.351740      0.842879
O       3.77346      2.12439     10.51721        -0.002332     -0.288688     -0.241105
O       3.73795     12.92170     10.30749         0.017261     -0.205188      0.434904
O       0.09360      1.64774     10.43374        -0.685705      0.207640     -0.428499
O       0.03531     13.40125     10.60910        -0.240484     -0.417488     -0.409650
O       3.73563      5.46595      2.39457        -1.391404     -0.063786     -0.132178
O       3.71557      5.95390     14.52312        -0.135668     -0.304698      0.154084
O      14.93560      5.93794      2.20504         0.177194      0.049860     -0.031943
O      14.96206      5.35107     14.52338         1.250992      0.503332      0.064686
O       3.74782      5.35986      6.36305         0.067474     -0.169171     -0.298839
O      14.98759      6.01572      6.33287         0.058535     -0.467656      0.067334
O       3.74861      5.35088     10.34639        -0.182067      0.403872      0.157382
O       0.01340      5.86760     10.41320         0.032740     -0.299122     -0.128100
O       3.76883      9.68980      2.05060        -0.509403     -0.552669      0.514540
O       3.68160      9.19544     14.48981        -0.112469     -0.198427      0.209241
O      14.94021      9.17618      2.30321         0.861870     -0.029373     -0.304815
O      14.95746      9.76157     14.66141         0.373268     -0.195213     -0.299743
O       3.61392      9.61987      6.38629         1.399904      0.737769     -0.201846
O      14.93446      9.21875      6.22298         0.242124     -0.645741      0.694985
O       3.72259      9.61190     10.61753        -0.347155      0.189679     -0.039016
O      14.96467      9.29475     10.51869         0.020299     -0.237714     -0.244255
O       7.46485      1.83060      2.21156         0.926235      0.213778     -0.080330
O       7.57979      2.14348     14.69040        -1.772950     -0.142331     -0.008209
O       7.53176     13.19716      2.27188        -1.487706      0.494715      0.179859
O       7.51120     13.03982     14.41393        -0.442272      0.192743      0.335948
O       7.52886      1.50956      6.38862        -0.542040      0.271974      0.301613
O       7.39511     13.48143      6.36013         0.500202     -0.327268      0.115007
O       7.54164      1.71821     10.27337         0.067894      0.134188      0.713574
O       7.50996     13.33337     10.37295         0.000353      0.308215      0.502409
O       7.49220      5.77546      2.14166        -0.938427      0.375764      0.282248
O       7.46536      5.50375     14.38526        -0.026587     -0.222886      0.267087
O       7.53514      6.01787      6.30007        -1.081420      0.107618      0.421957
O       7.59149      5.72900     10.65302        -2.472456      0.753833     -0.236014
O       7.48723      9.26669      2.23429        -0.061744      0.178711     -0.256258
O       7.46988      9.51993     14.49632         0.384617      0.144043      0.358712
O       7.39133      9.00011      6.27535        -0.290888      0.241806      0.339137
O       7.49898      9.39067     10.22426         0.175625     -0.740550      0.504641
O      11.21767      2.15545      2.29033         0.320245     -0.281614      0.003030
O      11.26992      1.82514     14.61681        -0.363652     -0.301303     -0.111952
O      11.15956     13.10359      2.62059         0.504022     -0.174785     -0.883713
O      11.24706     13.38263     14.50967         0.098839     -0.003939     -0.242366
O      11.26120      2.19674      6.25938         0.200823     -0.133302      0.468361
O      11.22825     12.87331      6.40180        -0.758324     -0.388833     -0.090321
O      11.39645      2.06217     10.45375        -1.921873      0.094798      0.018521
O      11.25748     13.15714     10.40928         1.014113     -1.082219      0.490579
O      11.18590      5.49222      2.23232         1.179897     -0.279406     -0.000168
O      11.24614      5.90845     14.54662         0.571751      0.295096     -0.212332
O      11.26085      5.36935      6.40280        -0.385164     -0.099786     -0.085093
O      11.32032      5.50322     10.53183        -1.265839     -0.127057     -0.229041
O      11.22798      9.49039      2.25250         0.123416      0.255015     -0.159084
O      11.21219      9.23111     14.57159         0.034589     -0.216063     -0.219839
O      11.19876      9.71123      6.30520        -0.015927     -0.118621      0.186239
O      11.22210      9.55821     10.42877         1.009689      0.246872      0.422822
O       1.46463      3.76776      2.20793         0.824864     -0.530145     -0.205552
O       2.03755      3.69441     14.54220         0.321444      0.734418      0.562505
O       1.97812      0.00414      2.33749         0.113870      0.540346      0.304570
O       1.51629     15.00740     14.41048         0.862284      0.767356      0.169684
O      13.37850      3.74167      2.25578        -0.413629      1.045736     -0.067608
O      12.97991      3.86251     14.54844        -0.817004     -1.986455      0.304882
O      12.92579      0.06489      2.20318        -0.384107     -1.233139      0.408576
O      13.33126     15.00791     14.56854        -0.148858      0.483998      0.020600
O       1.50290      3.74591      6.26518         0.421763      0.426548      0.406665
O       2.16873      0.07468      6.34201         0.548020     -1.715501      0.280725
O      13.40969      3.70286      6.39494        -0.058311      0.390510      0.111163
O      12.77096     14.98006      6.41940         0.348923     -0.383958     -0.240702
O       1.64583      3.78412     10.34553         0.059727     -0.979159      0.064085
O       2.17724     14.93859     10.57090        -0.193314      1.435388     -0.423023
O      13.33054      3.72680     10.31025         0.496708      0.651269      0.250871
O      13.04137      0.07084     10.46450        -0.187568     -0.683110      0.061023
O       2.09705      7.52991      2.20198        -0.128080      0.371216      0.103735
O       1.55197      7.44008     14.54919        -0.354211      1.236450     -0.000333
O      12.90051      7.51375      2.24113        -0.028455     -0.679375     -0.038235
O      13.45386      7.58165     14.41482        -0.125853     -1.231620      0.257969
O       2.10601      7.50707      6.26217        -0.302081      0.382676     -0.022425
O      12.79605      7.47462      6.24684         0.182588      0.742988      0.296660
O       2.10672      7.53205     10.52993        -0.336550     -0.123965     -0.088554
O      13.04851      7.48199     10.38690        -0.441101      1.218631      0.490048
O       1.63635     11.26397      2.27341         0.195580      0.064940     -0.083180
O       2.11093     11.25873     14.61965        -0.425109     -0.701578     -0.470778
O      13.19407     11.17664      2.26640        -0.020427      1.535913      0.008151
O      12.87728     11.28584     14.46065        -0.052559      0.831306      0.227548
O       1.55485     11.35799      6.30510        -0.010515     -1.535499      0.285760
O      13.43247     11.23707      6.31658        -0.210262      0.419015      0.210172
O       1.67226     11.27858     10.52742         0.034754     -0.386551      0.224608
O      13.29497     11.33417     10.55451        -0.040328     -1.508015      0.032642
O       5.74802      3.80265      2.57567        -0.349412     -0.652734     -0.573218
O       5.33223      3.85722     14.63270         0.015856     -1.642793      0.423766
O       5.64248      0.07181      2.20455        -0.651817     -0.884218     -0.035944
O       5.70757      0.05205     14.56433         0.839482     -0.482795     -0.064764
O       5.97764      3.71492      6.18745        -0.338239      0.814696      0.371336
O       5.29947     14.98771      6.48481         0.118617      0.374576     -0.312967
O       5.77385      3.77835     10.45857         0.575831     -0.841738     -0.080262
O       5.47545      0.01998     10.46999        -0.434058     -0.874902      0.297794
O       5.48839      7.57610      2.33710        -0.382123     -0.132037     -0.328184
O       5.78073      7.43288     14.43467         0.303596      0.463503      0.268818
O       5.16584      7.57690      6.21498         0.922014     -0.673715      0.055984
O       5.41989      7.53872     10.37176         0.352557     -0.737506      0.534120
O       5.86211     11.34568      2.02119        -0.005643     -1.035298      0.416354
O       5.43140     11.19074     14.49758        -0.116466      1.160123      0.233329
O       5.92563     11.33916      6.24556        -0.316877     -0.684912      0.403530
O       5.85050     11.29561     10.46734        -0.302016      0.237568      0.167768
O       9.19215      3.75701      2.10142        -0.052606     -0.439928      0.264833
O       9.53454      3.76641     14.73246         0.105965      0.753843     -0.289082
O       9.49964      0.01462      2.19298        -0.032916     -0.051701      0.183524
O       9.24141      0.02979     14.50924        -0.391208     -1.564654      0.231353
O       9.01437      3.76523      6.32921         0.297687     -0.658893      0.179050
O       9.67101     14.95406      6.41968        -0.119342      0.224643     -0.203884
O       9.17372      3.78503     10.58179         0.797526     -2.378842     -0.293234
O       9.63253     14.99445     10.51028        -0.627862      1.955801     -0.068500
O       9.51478      7.49313      2.25481        -0.203605      0.415906     -0.065549
O       9.16013      7.51109     14.66228        -0.218385     -0.221505     -0.391897
O       9.73465      7.53011      6.26104        -0.446292     -0.526084      0.219965
O       9.50219      7.50364     10.32066         0.160483      0.050257      0.387902
O       9.30614     11.27630      2.06732        -0.344936     -0.530536      0.450164
O       9.48570     11.27267     14.59326         0.316659     -0.704536     -0.328699
O       9.02317     11.14601      6.49193        -0.025661      1.558677     -0.382869
O       9.26147     11.27145     10.50930         0.325227      0.151076     -0.086845
