  # total energy = -7889.07250779 
CRSYTAL
PRIMVEC
    15.3600000000000000    0.0000000000000000    0.0000000000000000
     0.0000000000000000   15.3600000000000000    0.0000000000000000
     0.0000000000000000    0.0000000000000000    17.440000000000000
PRESSURE
-0.828938 -0.830019 -8.81989 0.034774 0.036557 0.111579
PRIMCOORD
320 1
Pb       3.82042      3.82042      4.32994        -0.016872     -0.016698     -0.091883
Pb       3.82117      3.82116     17.41185        -0.023812     -0.023462     -0.143298
Pb       3.82043     15.34042      4.32995        -0.016908     -0.016635     -0.091910
Pb       3.82116     15.34117     17.41185        -0.023715     -0.023562     -0.143255
Pb      15.34042      3.82042      4.32995        -0.016865     -0.016652     -0.091899
Pb      15.34117      3.82117     17.41185        -0.023798     -0.023507     -0.143268
Pb      15.34042     15.34042      4.32995        -0.016832     -0.016685     -0.091926
Pb      15.34117     15.34116     17.41185        -0.023840     -0.023452     -0.143227
Pb       3.82117      3.82116      8.69185        -0.023822     -0.023463     -0.143298
Pb       3.82116     15.34117      8.69185        -0.023727     -0.023555     -0.143262
Pb      15.34117      3.82117      8.69185        -0.023784     -0.023513     -0.143270
Pb      15.34117     15.34116      8.69185        -0.023839     -0.023453     -0.143234
Pb       3.82042      3.82043     13.04994        -0.016864     -0.016706     -0.091892
Pb       3.82043     15.34042     13.04995        -0.016910     -0.016635     -0.091916
Pb      15.34042      3.82042     13.04995        -0.016868     -0.016653     -0.091905
Pb      15.34042     15.34042     13.04995        -0.016823     -0.016692     -0.091928
Pb       3.82042      7.66042      4.32995        -0.016852     -0.016668     -0.091898
Pb       3.82117      7.66117     17.41185        -0.023788     -0.023487     -0.143264
Pb      15.34043      7.66042      4.32995        -0.016876     -0.016713     -0.091915
Pb      15.34116      7.66116     17.41185        -0.023786     -0.023476     -0.143245
Pb       3.82117      7.66117      8.69185        -0.023785     -0.023493     -0.143271
Pb      15.34116      7.66116      8.69185        -0.023778     -0.023492     -0.143255
Pb       3.82042      7.66042     13.04995        -0.016847     -0.016658     -0.091906
Pb      15.34043      7.66042     13.04995        -0.016878     -0.016708     -0.091919
Pb       3.82042     11.50042      4.32995        -0.016875     -0.016707     -0.091930
Pb       3.82117     11.50116     17.41185        -0.023779     -0.023466     -0.143226
Pb      15.34042     11.50042      4.32995        -0.016851     -0.016663     -0.091941
Pb      15.34117     11.50117     17.41184        -0.023773     -0.023503     -0.143197
Pb       3.82117     11.50116      8.69185        -0.023776     -0.023465     -0.143229
Pb      15.34117     11.50117      8.69184        -0.023780     -0.023499     -0.143207
Pb       3.82042     11.50042     13.04995        -0.016882     -0.016708     -0.091933
Pb      15.34042     11.50042     13.04995        -0.016842     -0.016662     -0.091944
Pb       7.66042      3.82042      4.32995        -0.016879     -0.016692     -0.091905
Pb       7.66117      3.82116     17.41185        -0.023768     -0.023485     -0.143255
Pb       7.66042     15.34042      4.32995        -0.016852     -0.016658     -0.091934
Pb       7.66117     15.34117     17.41184        -0.023770     -0.023497     -0.143207
Pb       7.66117      3.82116      8.69185        -0.023767     -0.023488     -0.143260
Pb       7.66117     15.34117      8.69184        -0.023772     -0.023497     -0.143220
Pb       7.66042      3.82042     13.04995        -0.016887     -0.016698     -0.091909
Pb       7.66042     15.34042     13.04995        -0.016859     -0.016652     -0.091934
Pb       7.66043      7.66042      4.32995        -0.016918     -0.016669     -0.091926
Pb       7.66116      7.66117     17.41185        -0.023728     -0.023510     -0.143228
Pb       7.66116      7.66117      8.69185        -0.023730     -0.023504     -0.143233
Pb       7.66043      7.66042     13.04995        -0.016923     -0.016660     -0.091925
Pb       7.66042     11.50042      4.32995        -0.016881     -0.016692     -0.091951
Pb       7.66117     11.50117     17.41184        -0.023779     -0.023450     -0.143185
Pb       7.66117     11.50117      8.69184        -0.023777     -0.023455     -0.143182
Pb       7.66042     11.50042     13.04995        -0.016879     -0.016701     -0.091955
Pb      11.50042      3.82042      4.32995        -0.016867     -0.016650     -0.091923
Pb      11.50117      3.82117     17.41185        -0.023765     -0.023506     -0.143228
Pb      11.50043     15.34042      4.32995        -0.016897     -0.016697     -0.091951
Pb      11.50117     15.34117     17.41184        -0.023760     -0.023476     -0.143185
Pb      11.50117      3.82117      8.69185        -0.023768     -0.023507     -0.143234
Pb      11.50117     15.34117      8.69184        -0.023761     -0.023480     -0.143199
Pb      11.50042      3.82042     13.04995        -0.016865     -0.016646     -0.091925
Pb      11.50043     15.34042     13.04995        -0.016897     -0.016696     -0.091948
Pb      11.50042      7.66042      4.32995        -0.016837     -0.016733     -0.091935
Pb      11.50117      7.66116     17.41184        -0.023815     -0.023425     -0.143204
Pb      11.50117      7.66116      8.69184        -0.023818     -0.023425     -0.143210
Pb      11.50042      7.66042     13.04995        -0.016836     -0.016731     -0.091941
Pb      11.50042     11.50042      4.32995        -0.016886     -0.016639     -0.091960
Pb      11.50117     11.50117     17.41184        -0.023742     -0.023503     -0.143162
Pb      11.50117     11.50117      8.69184        -0.023745     -0.023497     -0.143169
Pb      11.50042     11.50042     13.04995        -0.016890     -0.016644     -0.091968
Ti       1.89596      1.89604      2.32706        -0.071218     -0.071034     -1.260590
Ti       1.89609      1.89625     15.40712        -0.070246     -0.070632     -1.224635
Ti       1.89596     13.41604      2.32707        -0.071164     -0.071049     -1.260754
Ti       1.89610     13.41625     15.40712        -0.070246     -0.070641     -1.224550
Ti      13.41596      1.89604      2.32707        -0.071189     -0.071045     -1.260904
Ti      13.41610      1.89625     15.40712        -0.070263     -0.070611     -1.224416
Ti      13.41596     13.41604      2.32707        -0.071188     -0.071011     -1.260794
Ti      13.41610     13.41625     15.40712        -0.070265     -0.070630     -1.224449
Ti       1.89609      1.89625      6.68712        -0.070245     -0.070630     -1.224617
Ti       1.89610     13.41625      6.68712        -0.070262     -0.070622     -1.224514
Ti      13.41610      1.89625      6.68712        -0.070257     -0.070636     -1.224369
Ti      13.41610     13.41625      6.68712        -0.070266     -0.070625     -1.224476
Ti       1.89596      1.89604     11.04706        -0.071203     -0.071034     -1.260630
Ti       1.89596     13.41604     11.04707        -0.071181     -0.071044     -1.260731
Ti      13.41596      1.89604     11.04707        -0.071185     -0.071030     -1.260861
Ti      13.41596     13.41604     11.04707        -0.071170     -0.071034     -1.260829
Ti       1.89596      5.73604      2.32707        -0.071178     -0.071043     -1.260748
Ti       1.89610      5.73625     15.40712        -0.070269     -0.070612     -1.224553
Ti      13.41596      5.73604      2.32707        -0.071180     -0.071065     -1.260659
Ti      13.41610      5.73625     15.40712        -0.070251     -0.070615     -1.224610
Ti       1.89610      5.73625      6.68712        -0.070269     -0.070624     -1.224516
Ti      13.41610      5.73625      6.68712        -0.070249     -0.070617     -1.224582
Ti       1.89596      5.73604     11.04707        -0.071190     -0.071034     -1.260779
Ti      13.41596      5.73604     11.04706        -0.071178     -0.071070     -1.260635
Ti       1.89596      9.57604      2.32707        -0.071181     -0.071062     -1.260772
Ti       1.89609      9.57625     15.40712        -0.070229     -0.070603     -1.224537
Ti      13.41596      9.57604      2.32707        -0.071182     -0.071026     -1.260931
Ti      13.41610      9.57625     15.40712        -0.070242     -0.070647     -1.224397
Ti       1.89609      9.57625      6.68712        -0.070237     -0.070598     -1.224550
Ti      13.41610      9.57625      6.68712        -0.070261     -0.070630     -1.224368
Ti       1.89596      9.57604     11.04707        -0.071197     -0.071058     -1.260719
Ti      13.41596      9.57604     11.04707        -0.071178     -0.071023     -1.260905
Ti       5.73596      1.89604      2.32707        -0.071212     -0.071061     -1.260696
Ti       5.73609      1.89625     15.40712        -0.070207     -0.070621     -1.224618
Ti       5.73596     13.41604      2.32707        -0.071193     -0.071042     -1.260928
Ti       5.73609     13.41625     15.40712        -0.070233     -0.070636     -1.224378
Ti       5.73609      1.89625      6.68712        -0.070219     -0.070620     -1.224581
Ti       5.73609     13.41625      6.68712        -0.070241     -0.070642     -1.224357
Ti       5.73596      1.89604     11.04707        -0.071202     -0.071054     -1.260685
Ti       5.73596     13.41604     11.04707        -0.071201     -0.071034     -1.260879
Ti       5.73596      5.73604      2.32707        -0.071209     -0.071034     -1.260699
Ti       5.73609      5.73625     15.40712        -0.070230     -0.070591     -1.224537
Ti       5.73609      5.73625      6.68712        -0.070227     -0.070594     -1.224590
Ti       5.73596      5.73604     11.04707        -0.071209     -0.071052     -1.260712
Ti       5.73596      9.57604      2.32707        -0.071202     -0.071013     -1.260729
Ti       5.73609      9.57625     15.40712        -0.070233     -0.070622     -1.224595
Ti       5.73609      9.57625      6.68712        -0.070235     -0.070639     -1.224537
Ti       5.73596      9.57604     11.04707        -0.071205     -0.071046     -1.260678
Ti       9.57596      1.89604      2.32707        -0.071171     -0.071020     -1.260788
Ti       9.57610      1.89625     15.40712        -0.070249     -0.070643     -1.224484
Ti       9.57596     13.41604      2.32707        -0.071212     -0.071035     -1.260783
Ti       9.57609     13.41625     15.40712        -0.070241     -0.070632     -1.224492
Ti       9.57610      1.89625      6.68712        -0.070244     -0.070653     -1.224512
Ti       9.57609     13.41625      6.68712        -0.070209     -0.070617     -1.224467
Ti       9.57596      1.89604     11.04707        -0.071197     -0.071023     -1.260776
Ti       9.57596     13.41604     11.04707        -0.071211     -0.071057     -1.260790
Ti       9.57596      5.73604      2.32707        -0.071208     -0.071045     -1.260838
Ti       9.57609      5.73625     15.40712        -0.070213     -0.070618     -1.224440
Ti       9.57609      5.73625      6.68712        -0.070222     -0.070626     -1.224449
Ti       9.57596      5.73604     11.04707        -0.071200     -0.071040     -1.260831
Ti       9.57596      9.57604      2.32707        -0.071191     -0.071049     -1.260900
Ti       9.57610      9.57625     15.40712        -0.070249     -0.070603     -1.224393
Ti       9.57610      9.57625      6.68712        -0.070242     -0.070623     -1.224370
Ti       9.57596      9.57604     11.04707        -0.071193     -0.071051     -1.260863
O       1.90241      1.90239      0.46138        -0.023530     -0.023443      1.278703
O       1.90338      1.90336     13.54233        -0.025249     -0.025019      1.247100
O       1.90241     13.42238      0.46137        -0.023544     -0.023433      1.278783
O       1.90338     13.42336     13.54234        -0.025238     -0.025025      1.247041
O      13.42241      1.90238      0.46137        -0.023536     -0.023438      1.278855
O      13.42338      1.90336     13.54234        -0.025246     -0.025029      1.246978
O      13.42241     13.42239      0.46137        -0.023534     -0.023442      1.278808
O      13.42338     13.42336     13.54234        -0.025243     -0.025019      1.246987
O       1.90338      1.90336      4.82233        -0.025249     -0.025020      1.247090
O       1.90338     13.42336      4.82234        -0.025239     -0.025026      1.247013
O      13.42338      1.90336      4.82234        -0.025245     -0.025029      1.246954
O      13.42338     13.42336      4.82234        -0.025240     -0.025021      1.246975
O       1.90241      1.90239      9.18137        -0.023528     -0.023444      1.278729
O       1.90241     13.42238      9.18137        -0.023541     -0.023434      1.278760
O      13.42241      1.90238      9.18137        -0.023539     -0.023437      1.278840
O      13.42241     13.42239      9.18137        -0.023536     -0.023445      1.278827
O       1.90241      5.74238      0.46137        -0.023542     -0.023449      1.278767
O       1.90338      5.74336     13.54233        -0.025237     -0.025017      1.247049
O      13.42241      5.74238      0.46137        -0.023535     -0.023444      1.278755
O      13.42338      5.74336     13.54233        -0.025243     -0.025026      1.247054
O       1.90338      5.74336      4.82233        -0.025236     -0.025016      1.247041
O      13.42338      5.74336      4.82233        -0.025246     -0.025023      1.247057
O       1.90241      5.74238      9.18137        -0.023540     -0.023449      1.278777
O      13.42241      5.74238      9.18137        -0.023536     -0.023438      1.278739
O       1.90241      9.58238      0.46137        -0.023533     -0.023441      1.278796
O       1.90338      9.58336     13.54233        -0.025250     -0.025026      1.247035
O      13.42241      9.58239      0.46137        -0.023537     -0.023451      1.278874
O      13.42338      9.58336     13.54234        -0.025248     -0.025012      1.246950
O       1.90338      9.58336      4.82233        -0.025251     -0.025025      1.247036
O      13.42338      9.58336      4.82234        -0.025244     -0.025012      1.246926
O       1.90241      9.58238      9.18137        -0.023531     -0.023441      1.278763
O      13.42241      9.58239      9.18137        -0.023537     -0.023454      1.278855
O       5.74241      1.90238      0.46137        -0.023546     -0.023434      1.278767
O       5.74338      1.90336     13.54233        -0.025243     -0.025030      1.247066
O       5.74241     13.42238      0.46137        -0.023548     -0.023442      1.278843
O       5.74338     13.42336     13.54234        -0.025239     -0.025019      1.246969
O       5.74338      1.90336      4.82233        -0.025240     -0.025028      1.247051
O       5.74338     13.42336      4.82234        -0.025239     -0.025017      1.246962
O       5.74241      1.90238      9.18138        -0.023546     -0.023433      1.278735
O       5.74241     13.42238      9.18137        -0.023546     -0.023443      1.278848
O       5.74241      5.74238      0.46137        -0.023544     -0.023445      1.278750
O       5.74338      5.74336     13.54233        -0.025244     -0.025028      1.247056
O       5.74338      5.74336      4.82233        -0.025240     -0.025025      1.247055
O       5.74241      5.74238      9.18137        -0.023542     -0.023443      1.278751
O       5.74241      9.58239      0.46137        -0.023542     -0.023450      1.278775
O       5.74338      9.58336     13.54233        -0.025239     -0.025014      1.247058
O       5.74338      9.58336      4.82233        -0.025239     -0.025017      1.247037
O       5.74241      9.58239      9.18137        -0.023544     -0.023451      1.278762
O       9.58241      1.90239      0.46137        -0.023548     -0.023443      1.278817
O       9.58338      1.90336     13.54234        -0.025233     -0.025019      1.247002
O       9.58241     13.42238      0.46137        -0.023537     -0.023439      1.278814
O       9.58338     13.42336     13.54234        -0.025245     -0.025027      1.246988
O       9.58338      1.90336      4.82233        -0.025235     -0.025017      1.247007
O       9.58338     13.42336      4.82234        -0.025245     -0.025026      1.246985
O       9.58241      1.90239      9.18137        -0.023547     -0.023443      1.278807
O       9.58241     13.42238      9.18137        -0.023538     -0.023437      1.278814
O       9.58241      5.74239      0.46137        -0.023537     -0.023448      1.278822
O       9.58339      5.74336     13.54233        -0.025247     -0.025014      1.246996
O       9.58338      5.74336      4.82233        -0.025247     -0.025016      1.246994
O       9.58241      5.74238      9.18137        -0.023539     -0.023448      1.278802
O       9.58241      9.58238      0.46137        -0.023550     -0.023443      1.278872
O       9.58338      9.58336     13.54234        -0.025233     -0.025022      1.246954
O       9.58338      9.58336      4.82234        -0.025232     -0.025022      1.246933
O       9.58241      9.58238      9.18137        -0.023549     -0.023443      1.278859
O       3.81925      1.90217      2.67512        -0.039928     -0.020837      0.078791
O       3.81957      1.90272     15.75658        -0.037972     -0.021199      0.072966
O       3.81925     13.42217      2.67512        -0.039959     -0.020836      0.078833
O       3.81957     13.42272     15.75658        -0.037940     -0.021197      0.072939
O      15.33925      1.90217      2.67512        -0.039917     -0.020836      0.078814
O      15.33957      1.90272     15.75658        -0.037938     -0.021201      0.072939
O      15.33925     13.42217      2.67512        -0.039936     -0.020837      0.078825
O      15.33957     13.42272     15.75658        -0.037944     -0.021199      0.072948
O       3.81957      1.90272      7.03658        -0.037939     -0.021200      0.072964
O       3.81957     13.42272      7.03658        -0.037946     -0.021200      0.072935
O      15.33957      1.90272      7.03658        -0.037954     -0.021202      0.072939
O      15.33957     13.42272      7.03658        -0.037925     -0.021203      0.072950
O       3.81925      1.90217     11.39512        -0.039939     -0.020835      0.078793
O       3.81925     13.42217     11.39512        -0.039938     -0.020834      0.078829
O      15.33925      1.90217     11.39512        -0.039915     -0.020836      0.078816
O      15.33925     13.42217     11.39512        -0.039950     -0.020834      0.078823
O       3.81925      5.74217      2.67512        -0.039928     -0.020834      0.078815
O       3.81957      5.74272     15.75658        -0.037944     -0.021207      0.072948
O      15.33925      5.74217      2.67512        -0.039947     -0.020831      0.078806
O      15.33957      5.74272     15.75658        -0.037918     -0.021206      0.072957
O       3.81957      5.74272      7.03658        -0.037953     -0.021203      0.072950
O      15.33957      5.74272      7.03658        -0.037925     -0.021203      0.072955
O       3.81925      5.74217     11.39512        -0.039919     -0.020836      0.078815
O      15.33925      5.74217     11.39512        -0.039955     -0.020833      0.078807
O       3.81925      9.58217      2.67512        -0.039930     -0.020831      0.078811
O       3.81957      9.58272     15.75658        -0.037963     -0.021204      0.072956
O      15.33925      9.58217      2.67512        -0.039936     -0.020833      0.078837
O      15.33957      9.58272     15.75658        -0.037948     -0.021203      0.072934
O       3.81957      9.58272      7.03658        -0.037967     -0.021206      0.072951
O      15.33957      9.58272      7.03658        -0.037940     -0.021203      0.072934
O       3.81925      9.58217     11.39512        -0.039927     -0.020833      0.078805
O      15.33925      9.58217     11.39512        -0.039929     -0.020834      0.078834
O       7.65925      1.90217      2.67512        -0.039936     -0.020835      0.078812
O       7.65957      1.90272     15.75658        -0.037955     -0.021201      0.072951
O       7.65925     13.42217      2.67512        -0.039910     -0.020836      0.078842
O       7.65957     13.42272     15.75658        -0.037971     -0.021200      0.072926
O       7.65957      1.90272      7.03658        -0.037968     -0.021201      0.072949
O       7.65957     13.42272      7.03658        -0.037973     -0.021198      0.072925
O       7.65925      1.90217     11.39512        -0.039914     -0.020835      0.078810
O       7.65925     13.42217     11.39512        -0.039912     -0.020834      0.078835
O       7.65925      5.74217      2.67512        -0.039930     -0.020834      0.078827
O       7.65957      5.74272     15.75658        -0.037968     -0.021205      0.072937
O       7.65957      5.74272      7.03658        -0.037954     -0.021205      0.072944
O       7.65925      5.74217     11.39512        -0.039936     -0.020835      0.078821
O       7.65925      9.58217      2.67512        -0.039921     -0.020833      0.078825
O       7.65957      9.58272     15.75658        -0.037945     -0.021203      0.072942
O       7.65957      9.58272      7.03658        -0.037946     -0.021205      0.072934
O       7.65925      9.58217     11.39512        -0.039927     -0.020833      0.078819
O      11.49925      1.90217      2.67512        -0.039950     -0.020836      0.078835
O      11.49957      1.90272     15.75658        -0.037935     -0.021202      0.072927
O      11.49925     13.42217      2.67512        -0.039923     -0.020837      0.078832
O      11.49957     13.42272     15.75658        -0.037940     -0.021201      0.072937
O      11.49957      1.90272      7.03658        -0.037939     -0.021200      0.072926
O      11.49957     13.42272      7.03658        -0.037949     -0.021201      0.072940
O      11.49925      1.90217     11.39512        -0.039960     -0.020838      0.078833
O      11.49925     13.42217     11.39512        -0.039929     -0.020835      0.078828
O      11.49925      5.74217      2.67512        -0.039923     -0.020830      0.078819
O      11.49957      5.74272     15.75658        -0.037969     -0.021204      0.072945
O      11.49957      5.74272      7.03658        -0.037966     -0.021205      0.072945
O      11.49925      5.74217     11.39512        -0.039916     -0.020831      0.078815
O      11.49925      9.58217      2.67512        -0.039942     -0.020834      0.078853
O      11.49957      9.58272     15.75658        -0.037942     -0.021203      0.072920
O      11.49957      9.58272      7.03658        -0.037944     -0.021204      0.072915
O      11.49925      9.58217     11.39512        -0.039944     -0.020834      0.078850
O       1.90221      3.81916      2.67511        -0.020305     -0.040330      0.078783
O       1.90277      3.81956     15.75657        -0.021103     -0.038980      0.072993
O       1.90221     15.33916      2.67512        -0.020304     -0.040310      0.078781
O       1.90277     15.33956     15.75657        -0.021105     -0.038955      0.072999
O      13.42221      3.81916      2.67511        -0.020306     -0.040297      0.078796
O      13.42277      3.81956     15.75657        -0.021101     -0.039001      0.072979
O      13.42221     15.33916      2.67511        -0.020306     -0.040319      0.078820
O      13.42277     15.33956     15.75657        -0.021102     -0.038971      0.072962
O       1.90277      3.81956      7.03657        -0.021101     -0.038962      0.072991
O       1.90277     15.33956      7.03657        -0.021104     -0.038980      0.072997
O      13.42277      3.81956      7.03657        -0.021106     -0.038994      0.072977
O      13.42277     15.33956      7.03657        -0.021104     -0.038962      0.072963
O       1.90221      3.81916     11.39511        -0.020303     -0.040333      0.078786
O       1.90221     15.33916     11.39512        -0.020303     -0.040300      0.078783
O      13.42221      3.81916     11.39511        -0.020306     -0.040291      0.078796
O      13.42221     15.33916     11.39511        -0.020308     -0.040325      0.078820
O       1.90221      7.65916      2.67511        -0.020308     -0.040295      0.078805
O       1.90277      7.65956     15.75657        -0.021104     -0.038994      0.072980
O      13.42221      7.65916      2.67512        -0.020307     -0.040301      0.078801
O      13.42277      7.65956     15.75657        -0.021104     -0.038967      0.072983
O       1.90277      7.65956      7.03657        -0.021103     -0.038983      0.072978
O      13.42277      7.65956      7.03657        -0.021104     -0.038974      0.072982
O       1.90221      7.65916     11.39511        -0.020306     -0.040292      0.078803
O      13.42221      7.65916     11.39512        -0.020308     -0.040311      0.078798
O       1.90221     11.49916      2.67512        -0.020306     -0.040297      0.078804
O       1.90277     11.49956     15.75657        -0.021107     -0.038985      0.072985
O      13.42221     11.49916      2.67511        -0.020305     -0.040318      0.078826
O      13.42277     11.49956     15.75657        -0.021105     -0.038971      0.072961
O       1.90277     11.49956      7.03657        -0.021106     -0.038986      0.072983
O      13.42277     11.49956      7.03657        -0.021104     -0.038983      0.072967
O       1.90221     11.49916     11.39512        -0.020306     -0.040306      0.078798
O      13.42221     11.49916     11.39511        -0.020307     -0.040308      0.078823
O       5.74221      3.81916      2.67512        -0.020302     -0.040312      0.078785
O       5.74277      3.81956     15.75657        -0.021113     -0.038969      0.072993
O       5.74221     15.33916      2.67511        -0.020303     -0.040281      0.078811
O       5.74277     15.33956     15.75657        -0.021113     -0.038981      0.072970
O       5.74277      3.81956      7.03657        -0.021110     -0.038994      0.072996
O       5.74277     15.33956      7.03657        -0.021110     -0.038966      0.072968
O       5.74221      3.81916     11.39512        -0.020304     -0.040296      0.078784
O       5.74221     15.33916     11.39511        -0.020304     -0.040306      0.078809
O       5.74221      7.65916      2.67512        -0.020301     -0.040305      0.078789
O       5.74277      7.65956     15.75657        -0.021112     -0.039005      0.072992
O       5.74277      7.65956      7.03657        -0.021111     -0.038988      0.072992
O       5.74221      7.65916     11.39512        -0.020301     -0.040308      0.078780
O       5.74221     11.49916      2.67512        -0.020302     -0.040332      0.078814
O       5.74277     11.49956     15.75657        -0.021109     -0.038961      0.072971
O       5.74277     11.49956      7.03657        -0.021111     -0.038965      0.072965
O       5.74221     11.49916     11.39511        -0.020303     -0.040323      0.078804
O       9.58221      3.81916      2.67511        -0.020303     -0.040329      0.078806
O       9.58277      3.81956     15.75657        -0.021109     -0.038962      0.072972
O       9.58221     15.33916      2.67512        -0.020302     -0.040300      0.078801
O       9.58277     15.33956     15.75657        -0.021109     -0.038967      0.072977
O       9.58277      3.81956      7.03657        -0.021110     -0.038963      0.072976
O       9.58277     15.33956      7.03657        -0.021111     -0.038963      0.072978
O       9.58221      3.81916     11.39511        -0.020303     -0.040338      0.078805
O       9.58221     15.33916     11.39512        -0.020300     -0.040303      0.078798
O       9.58221      7.65916      2.67511        -0.020301     -0.040287      0.078822
O       9.58277      7.65956     15.75657        -0.021108     -0.038988      0.072958
O       9.58277      7.65956      7.03657        -0.021109     -0.038990      0.072960
O       9.58221      7.65916     11.39511        -0.020301     -0.040288      0.078820
O       9.58221     11.49916      2.67512        -0.020302     -0.040319      0.078818
O       9.58277     11.49956     15.75657        -0.021107     -0.038991      0.072965
O       9.58277     11.49956      7.03657        -0.021108     -0.038995      0.072964
O       9.58221     11.49916     11.39512        -0.020301     -0.040306      0.078813
