  # total energy = -7880.92846446 
CRSYTAL
PRIMVEC
    15.3600000000000000    0.0000000000000000    0.0000000000000000
     0.0000000000000000   15.3600000000000000    0.0000000000000000
     0.0000000000000000    0.0000000000000000    17.440000000000000
PRESSURE
-0.661262 -0.855866 -4.99167 -0.111148 -0.354965 -0.014065
PRIMCOORD
320 1
Pb       3.87156      3.78543      4.29840        -0.134685      0.586328     -0.120296
Pb       3.75499      3.85992     17.42869        -0.235112     -0.140799     -0.419398
Pb       3.84637     15.32170      4.31134        -0.140107     -0.295025     -0.285837
Pb       3.84989     15.27292     17.43391        -0.106301      0.129742     -0.807857
Pb       0.01234      3.84534      4.30650        -0.460602     -0.088262     -0.457540
Pb      15.25669      3.76328     17.35099         0.214694      0.244185     -0.453613
Pb      15.34555      0.01618      4.39484        -0.229043     -0.280932     -0.728349
Pb       0.14739      0.03937     17.37510        -0.179355     -0.441139     -0.230858
Pb       3.91488      3.82437      8.68365        -0.365316     -0.037516     -0.265052
Pb       3.82544     15.33822      8.57854         0.014545      0.069756     -0.108018
Pb       0.14159      3.81253      8.73931        -0.319431     -0.383806     -0.355301
Pb       0.02531     15.28587      8.68656        -0.065374      0.127369     -0.383939
Pb       3.87650      3.88859     13.11751        -0.154128      0.161606     -0.635640
Pb       3.95433      0.10660     13.13310        -0.456241     -0.908767     -0.683645
Pb       0.00563      3.86813     12.98583        -0.786955     -0.050413      0.347428
Pb      15.33147     15.31066     13.10082        -0.318356      0.258997     -0.583042
Pb       3.78498      7.65040      4.36823         0.396023     -0.001500     -0.214422
Pb       3.89540      7.70606     17.39020         0.109378     -0.412775     -0.129589
Pb      15.22340      7.64054      4.33318         0.181077      0.029849     -0.758200
Pb       0.09627      7.56235      0.02709        -0.686893      0.162458     -0.539975
Pb       3.72952      7.71633      8.60716         0.468123     -0.372843      0.388321
Pb      15.33625      7.73240      8.64133        -0.202984     -0.013213     -0.044970
Pb       3.88877      7.71592     13.04231        -0.524313      0.250937     -0.455357
Pb      15.26063      7.68208     12.98956         0.095296     -0.112328      0.116044
Pb       3.93278     11.45737      4.41464         0.115665     -0.117359     -0.416213
Pb       3.68394     11.57942      0.01159         0.013978     -0.065719     -0.551764
Pb      15.26973     11.37567      4.42514        -0.410042      0.282081     -0.732037
Pb       0.03640     11.46011      0.03742        -0.137411     -0.011723      0.026528
Pb       3.87625     11.44557      8.63759        -0.294852      0.078340      0.303158
Pb       0.01895     11.62589      8.67552        -0.262205     -0.231931     -0.058379
Pb       3.76731     11.53327     13.07402        -0.015091     -0.218205     -0.588701
Pb      15.26920     11.49271     12.96255        -0.171454     -0.235893     -0.061951
Pb       7.59258      3.91043      4.24868         0.607183     -0.262444      0.041756
Pb       7.60416      3.77895      0.05644         0.525812      0.068929     -0.359264
Pb       7.57767     15.25386      4.39706         0.556382      0.016841     -1.114885
Pb       7.81846     15.29555      0.00538        -0.298499     -0.115578      0.209379
Pb       7.66667      3.86634      8.63386         0.406540     -0.250763      0.046363
Pb       7.67336      0.11477      8.73328         0.091308     -0.382217     -0.154468
Pb       7.62185      3.73763     12.98150         0.415582      0.464230     -0.659060
Pb       7.64249     15.25294     13.11136         0.110342     -0.384659     -0.475560
Pb       7.70432      7.75355      4.39806        -0.187233     -0.274185     -0.328808
Pb       7.62947      7.68279     17.38962        -0.018957     -0.279885     -0.269358
Pb       7.74971      7.53141      8.74527        -0.407532      0.565873     -0.559506
Pb       7.77545      7.70961     13.13506         0.113334     -0.231804     -0.926300
Pb       7.63658     11.48739      4.35828         0.366566      0.094351     -1.018823
Pb       7.67101     11.42005     17.36541        -0.087043      0.338885     -0.143776
Pb       7.67656     11.55904      8.74273         0.047388     -0.224156     -0.266875
Pb       7.55482     11.46796     13.02464         0.286638      0.351414     -0.093037
Pb      11.51869      3.92449      4.32971        -0.392799     -0.325916     -0.049151
Pb      11.45526      3.82306     17.42099        -0.219279     -0.278786     -0.664991
Pb      11.56683      0.01929      4.43988        -0.291545     -0.243094     -0.662805
Pb      11.55558      0.03492      0.03296        -0.514942     -0.227802     -0.134936
Pb      11.58614      3.67750      8.68526        -0.570521      0.324283     -0.474419
Pb      11.52812      0.09897      8.72968        -0.511911     -0.382322     -0.523018
Pb      11.48599      3.83020     12.94100        -0.051780      0.139915      0.060378
Pb      11.49802     15.35219     13.12223         0.170006      0.145134     -0.542474
Pb      11.51577      7.62606      4.43168        -0.169719      0.067618     -0.651104
Pb      11.47834      7.74203     17.35271         0.078421     -0.065169     -0.251950
Pb      11.52857      7.66663      8.68703        -0.209895      0.117671     -0.386242
Pb      11.57787      7.61294     13.14979        -0.184235      0.124399     -0.932539
Pb      11.45520     11.56923      4.30511        -0.274849     -0.203686     -0.486911
Pb      11.53583     11.51154     17.41382        -0.031141     -0.209975      0.344576
Pb      11.49280     11.52179      8.66325        -0.031391     -0.157481     -0.419827
Pb      11.50658     11.57532     13.12599         0.232960     -0.657153     -0.769947
Ti       1.84887      1.88642      2.32805        -0.205914     -0.300277     -0.570740
Ti       1.91515      1.85335     15.27688        -0.798960      0.628349      0.141182
Ti       1.90068     13.34337      2.44612        -0.540914      0.432666     -1.121747
Ti       1.83176     13.38183     15.19604         0.809100     -0.270387      0.654228
Ti      13.34404      1.84661      2.25197        -0.354970      0.266771      1.094526
Ti      13.31370      1.82898     15.41316         0.275491      0.906711     -1.443650
Ti      13.48883     13.37250      2.29158        -0.670782     -0.279120     -0.077871
Ti      13.46732     13.38740     15.43266        -0.232028     -0.109433     -1.069629
Ti       1.83705      1.89852      6.51910         0.662248     -0.697290      1.096049
Ti       1.92064     13.37025      6.56642         0.395948      0.657260     -0.658901
Ti      13.42146      1.87205      6.61327        -0.549962      0.550515     -0.219349
Ti      13.37184     13.40782      6.61368         0.032888     -0.244720      0.493277
Ti       1.88859      1.94788     11.06077        -0.219441     -0.940695     -0.361970
Ti       1.83676     13.42205     11.03873         0.595774     -0.073466      1.839403
Ti      13.37104      1.90337     10.96729         0.020829      0.017509      0.318512
Ti      13.34569     13.44212     10.91990         0.633884     -0.219486     -0.726291
Ti       1.86786      5.71548      2.29758         0.233328      0.909785     -0.217239
Ti       1.84614      5.67465     15.37869        -0.281820      0.238065     -0.355847
Ti      13.38526      5.64472      2.16529         0.115390      0.636472     -0.741380
Ti      13.36210      5.76206     15.36036         0.599651     -0.315176      0.133489
Ti       1.85476      5.68403      6.55377         1.376944      0.028105     -1.024392
Ti      13.45711      5.73461      6.69549        -1.252129     -0.576664      0.428627
Ti       1.86823      5.72770     11.01106         0.167869      0.503086     -0.036021
Ti      13.38889      5.75441     10.86066        -0.400987      0.454971      0.822454
Ti       1.86487      9.60837      2.39144         0.331812     -0.588767     -1.345940
Ti       1.92062      9.51841     15.44533        -0.583362      0.512420     -2.503219
Ti      13.30538      9.49580      2.29467         0.311302      0.453595     -0.728934
Ti      13.47909      9.58670     15.39184         0.244203     -0.523533     -0.476656
Ti       1.81159      9.58520      6.65997         1.050045      0.125016      0.195570
Ti      13.36607      9.58064      6.58136        -0.481526      0.129905      0.451549
Ti       1.80415      9.55545     11.03837         0.645850      0.623535      0.294179
Ti      13.33742      9.55701     10.92549        -0.719490      0.062165      0.347735
Ti       5.66758      1.83603      2.25698         0.741683      0.367805     -0.219915
Ti       5.69229      1.98791     15.35117         0.282275     -1.548877      1.085932
Ti       5.68047     13.41973      2.11311         1.417034     -0.457407      0.822956
Ti       5.71477     13.43294     15.40086         0.391812     -0.810488     -0.573773
Ti       5.74466      1.91054      6.58029        -0.253891     -0.529870      0.166856
Ti       5.81586     13.41403      6.65916        -0.892157     -0.085573      0.059179
Ti       5.70735      1.82983     11.03422         0.598079      0.511295     -0.916734
Ti       5.73508     13.42649     10.96449        -0.422318     -0.324938     -0.199405
Ti       5.76969      5.77083      2.37348         0.237787      1.439224     -1.523432
Ti       5.78686      5.65341     15.37745        -0.643554      1.575353     -0.140770
Ti       5.74347      5.74435      6.65622        -0.353934      0.294403     -0.583735
Ti       5.72233      5.70713     10.96995         0.236771      0.299700     -0.870106
Ti       5.71456      9.56411      2.22871         0.058648     -0.381167      1.094520
Ti       5.70379      9.58680     15.32814         0.443683      0.811733      0.187089
Ti       5.75448      9.53322      6.73792        -0.494412      0.249100     -1.358967
Ti       5.70120      9.60593     11.00942        -0.280867     -0.550936     -1.116188
Ti       9.53030      1.88769      2.38909        -0.044397     -0.054476     -0.803409
Ti       9.47397      1.78238     15.27880         1.075809      1.011687      0.285703
Ti       9.61709     13.45447      2.20804        -0.694973     -0.544308      0.446947
Ti       9.57736     13.35345     15.45416        -0.321421      0.550493     -0.164053
Ti       9.50677      1.86426      6.57822         0.587175      0.476617      1.128937
Ti       9.59120     13.39735      6.61945         0.055739      0.581990     -0.126089
Ti       9.53474      1.85135     10.99914         0.417030      0.646724     -0.865611
Ti       9.65357     13.37273     10.98548        -1.249070      0.267601     -0.941892
Ti       9.59823      5.76263      2.22683        -0.462381     -0.075550      1.532459
Ti       9.56141      5.58376     15.27299         0.429833      0.311170      0.323231
Ti       9.62873      5.70999      6.59343         0.011289      0.013639     -0.078569
Ti       9.53564      5.78236     10.90829         0.085121     -1.065054      1.329361
Ti       9.49561      9.54533      2.32923         1.017581      1.368638     -0.730135
Ti       9.60267      9.57182     15.34444        -0.125953     -0.551760     -0.843932
Ti       9.53686      9.56284      6.64126         0.641417     -0.218331     -0.623195
Ti       9.54398      9.61996     10.97110         0.983251     -0.852844     -0.223682
O       1.74052      1.99789      0.51180         0.676268     -0.578385      1.703625
O       1.87747      1.91736     13.48508         0.217999      0.003227      0.400483
O       1.80902     13.27474      0.59700         0.304932      0.482049      1.229229
O       1.76599     13.34912     13.38484         0.202036      0.207147      1.568505
O      13.16356      1.88876      0.45572         0.653033     -0.100836      0.680406
O      13.30792      1.77211     13.55842        -0.032069     -0.056725      2.027342
O      13.52731     13.33215      0.49851        -0.128847      0.452680      0.820428
O      13.50147     13.41955     13.53283        -0.533964     -0.157131      2.223446
O       1.88374      1.87575      4.72759        -0.420047      0.177585      0.541865
O       1.98830     13.46314      4.73842        -0.280994     -0.253943      1.429789
O      13.40862      1.90672      4.78138         0.062600     -0.101369      1.594627
O      13.26249     13.43435      4.84888         0.429043      0.096858      0.094326
O       1.82257      1.96340      9.25126         0.071805     -0.151852      1.467733
O       1.64190     13.37575      9.31026         0.548921      0.207321     -0.558940
O      13.31201      1.93358      9.14643         0.125683     -0.312974      1.170734
O      13.42087     13.45831      9.06572        -0.093609     -0.361884      1.644348
O       1.85007      5.78162      0.43253         0.462936     -0.343758      1.735242
O       1.64977      5.65457     13.58567         0.840308     -0.001454      0.690164
O      13.44656      5.63906      0.33991        -0.413472      0.302638      2.095231
O      13.37370      5.78425     13.57821         0.241029      0.114348      0.333921
O       1.91061      5.72560      4.69988        -0.459100     -0.337383      1.976530
O      13.27554      5.73726      4.92869         0.778018     -0.181698     -0.085775
O       1.91476      5.63273      9.23637        -0.181730      0.214763      0.198055
O      13.25069      5.87814      9.07046         0.906123     -0.489624      0.850155
O       1.94791      9.71618      0.52423        -0.341480     -0.618419      1.228688
O       1.94017      9.60537     13.54924        -0.005314     -0.256541      2.252594
O      13.52373      9.51822      0.48154        -0.625667     -0.047654      1.520932
O      13.42769      9.60143     13.53194        -0.193582      0.004737      1.872757
O       1.83529      9.78318      4.90401         0.172757     -0.792592      0.187573
O      13.33070      9.59104      4.77880         0.240632     -0.412678      0.980429
O       1.83352      9.59740      9.25516        -0.180553     -0.452749     -0.081392
O      13.29818      9.38432      9.11842         0.422266      0.467617      0.850826
O       5.56164      1.94876      0.47329         0.400088     -0.109522      0.349261
O       5.72856      1.92687     13.57742        -0.234528      0.148752      0.232034
O       5.74836     13.50404      0.32457        -0.620964     -0.083102      1.137440
O       5.82256     13.44246     13.54596        -0.040872     -0.210244      1.197732
O       5.84698      1.86374      4.77709        -0.806866      0.191932      1.009641
O       5.86421     13.45654      4.81541        -0.454278     -0.129380      1.489438
O       5.65569      1.77687      9.25412         0.114878      0.001287      0.229773
O       5.64576     13.47923      9.12031         0.312476     -0.305677      1.773943
O       5.84063      5.96360      0.46693        -0.400442     -0.698820      1.743455
O       5.65587      5.57072     13.59372         0.509508      0.128862      0.258097
O       5.67586      5.74106      4.82650         0.427634     -0.138998      1.163954
O       5.71868      5.74101      9.09335         0.059087     -0.278227      1.698131
O       5.75793      9.36159      0.45057        -0.001498      0.568642      0.718893
O       5.64987      9.76107     13.51708         0.285703     -0.975769      0.866256
O       5.66326      9.57749      4.88058         0.102971      0.306602      1.515153
O       5.62955      9.57103      9.17188         0.271842      0.303621      1.384585
O       9.65489      1.86847      0.55987        -0.309551      0.193090      1.047834
O       9.64847      1.79927     13.48633        -0.530456     -0.186637      0.704414
O       9.58128     13.46242      0.38061         0.008155     -0.031228      0.857767
O       9.46531     13.58531     13.67322         0.436096     -0.701360      0.266530
O       9.45589      1.89318      4.83702         0.039216     -0.356187     -0.260779
O       9.61472     13.56943      4.80548        -0.449562     -0.304911      1.647131
O       9.61754      1.86417      9.14046        -0.335159      0.056807      1.731868
O       9.57066     13.29821      9.16627         0.345847     -0.338591      1.328894
O       9.59601      5.65470      0.49104        -0.089333      0.137225     -0.499391
O       9.61146      5.57440     13.49099        -0.498574      0.510952      1.044883
O       9.57302      5.81663      4.79201         0.268549     -0.040658      1.021002
O       9.29908      5.73185      9.11956         0.862664      0.113011      1.065606
O       9.68592      9.58604      0.52006        -0.686158     -0.060404      0.378287
O       9.58839      9.46137     13.50316        -0.179250      0.441300      1.891575
O       9.62581      9.59621      4.79991        -0.465283     -0.427972      1.310222
O       9.61383      9.54243      9.10972        -0.310921      0.501873      1.475485
O       3.77324      1.83633      2.63534        -0.495770      0.356131      0.279248
O       3.76845      1.91589     15.78285         1.051393      0.460775     -0.262219
O       3.77633     13.46326      2.66582         0.728104      0.140058     -0.169555
O       3.72564     13.39378     15.80794        -0.116384     -0.165433     -0.456747
O      15.21347      1.93331      2.73000         0.690324      0.013135     -0.391182
O       0.03358      1.85132     15.71723        -1.286553     -0.246888      0.092487
O      15.31506     13.29401      2.79502         0.011079      0.325925      0.086365
O       0.02691     13.54236     15.73362        -0.151740     -0.191811     -0.176155
O       3.77466      1.83292      6.92957         0.174708      0.207182     -0.177868
O       3.79424     13.43831      7.03910        -0.277041      0.024074     -0.301000
O      15.26292      1.94058      7.08590         0.631105     -0.422612     -0.653977
O       0.06268     13.39599      7.06739        -0.959454     -0.238060     -0.512991
O       3.86553      1.92240     11.38301        -1.588691     -0.212579      0.445604
O       3.86596     13.41159     11.48528        -0.447061      0.169241     -0.690442
O      15.21665      1.82475     11.47451         0.762420      0.314719     -0.536527
O      15.17639     13.35999     11.40764         1.043195      0.246611     -0.344765
O       3.88754      5.87218      2.80807        -1.157032     -0.040649     -0.898027
O       3.86839      5.75463     15.62841        -0.729708     -0.602974      0.536390
O       0.00713      5.67079      2.61923        -0.973379     -0.076243      0.085741
O      15.28168      5.74096     15.81020         1.067882     -0.110751     -0.056333
O       3.79145      5.61872      6.87369        -0.209840     -0.134115      0.468242
O       0.01044      5.57861      7.01308        -0.260327      0.363171     -0.111536
O       3.76742      5.54087     11.41753         0.567987      0.751063      0.076250
O      15.31149      5.82069     11.33691        -0.105803     -0.080328     -0.307618
O       3.79618      9.41561      2.69433        -0.110059      0.339249     -0.129821
O       3.85714      9.57409     15.79736        -0.852406      0.178716     -0.056184
O      15.21247      9.56184      2.83009         0.989185      0.360652     -0.184874
O      15.34370      9.55186     15.77361         0.647335     -0.105961     -0.038126
O       3.80360      9.50921      7.20230        -1.053699      0.452415     -0.801995
O      15.31181      9.59331      7.02540        -0.061434     -0.336895     -0.070574
O       3.79608      9.60502     11.45448         0.614158     -0.253278     -0.216350
O      15.24035      9.61985     11.38015         0.553040     -0.373651     -0.318969
O       7.52582      1.95396      2.70050         0.353771      0.141139     -0.509464
O       7.64638      1.93178     15.80563        -0.992589     -0.428387     -0.323334
O       7.66158     13.41282      2.60954        -1.208266     -0.187724     -0.140131
O       7.62383     13.37785     15.88972         0.478425      0.258173     -0.460923
O       7.63763      1.87625      7.03748        -0.547340     -0.217907     -0.015891
O       7.62397     13.34794      7.19861         0.196708      0.113900     -0.922376
O       7.63077      1.78239     11.40860         0.602431      0.314290     -0.053930
O       7.76681     13.33941     11.30382        -1.068361      0.275316      0.241930
O       7.67179      5.75677      2.74916        -0.262246     -0.130178     -0.313694
O       7.67714      5.63206     15.80564         0.326104      0.583286     -0.423004
O       7.66761      5.72708      7.00099        -0.777727     -0.026119     -0.148328
O       7.57765      5.64879     11.48847         0.454985      0.354260     -0.488834
O       7.61895      9.66509      2.75558        -0.434483      0.452541     -0.272955
O       7.64459      9.65751     15.71637         0.478075     -0.319789     -0.190281
O       7.61688      9.56674      7.02368         0.200598      0.133649     -0.071632
O       7.68018      9.64454     11.36522        -1.003420     -0.675632      0.134076
O      11.38360      1.96166      2.87485         1.051341     -0.670032     -0.697236
O      11.40558      1.88317     15.75253         0.819042     -0.467605     -0.101902
O      11.43855     13.43707      2.69761         0.660675      0.322858     -0.395144
O      11.50931     13.30029     15.74134         0.311455      0.475447     -0.282768
O      11.44264      1.81976      7.05498         0.509045     -0.065292     -0.408515
O      11.42780     13.36554      7.07453         0.318636      0.158087     -0.371834
O      11.47240      2.02451     11.40011         0.061359     -0.538303     -0.358325
O      11.52529     13.26553     11.42741        -0.941142      0.424357      0.070476
O      11.47337      5.77150      2.72133         0.280312     -0.002113     -0.564056
O      11.48034      5.81676     15.68918        -0.787726     -0.550464      0.144473
O      11.50654      5.72357      7.00735        -0.509930      0.110297     -0.060748
O      11.51838      5.78731     11.37869        -1.066494     -0.130021     -0.575950
O      11.42983      9.52611      2.68412         0.855557     -0.181076     -0.022746
O      11.59170      9.69872     15.86712        -0.731802     -0.656782     -0.694938
O      11.51474      9.53445      7.02797        -0.253644      0.019462     -0.268146
O      11.43519      9.48779     11.43920         0.118640      0.122118     -0.389453
O       1.88255      3.85218      2.76133         0.485314     -0.612316     -0.479668
O       1.84061      3.76741     15.86108         0.460656      0.609199     -0.491634
O       1.77455     15.31583      2.77055         0.095161      0.738415     -0.497408
O       1.94265     15.35801     15.72310        -0.015760     -0.722861     -0.151901
O      13.31353      3.80094      2.60947         0.156233      0.066197      0.080691
O      13.44430      3.81923     15.76404        -0.494845     -1.141627     -0.250875
O      13.35655     15.31381      2.73845         0.168114      0.431462     -0.474288
O      13.36503     15.27817     15.93186         0.158563      0.499691     -0.619258
O       1.89037      3.69487      7.10595        -0.136412      0.940828     -0.662552
O       1.79196     15.32360      7.04841         0.231622      0.302557     -0.409489
O      13.32290      3.74110      7.14707         0.328422      0.461985     -0.779075
O      13.38363     15.23687      7.01410         0.184250      1.567836     -0.180938
O       1.76235      3.84909     11.44167         0.157905     -0.853083     -0.263806
O       1.86309     15.33001     11.49596        -0.039481      0.193678     -0.602712
O      13.37341      3.91802     11.40771         0.452205     -0.812213     -0.674953
O      13.22812     15.35049     11.34958         0.177179     -0.335111     -0.356097
O       1.72765      7.70309      2.81948         0.398165     -0.457528     -0.510192
O       1.90142      7.60589     15.72327         0.064631      0.606651      0.202367
O      13.42123      7.52193      2.68486         0.056177      0.649729     -0.031845
O      13.45794      7.64023     15.85500        -0.378391      0.854811     -0.531482
O       1.88908      7.56568      6.99363        -0.385691      0.430626     -0.126302
O      13.38593      7.63749      7.04037         0.705096      0.151099     -0.481900
O       1.93205      7.70881     11.49433        -0.041914     -1.102689     -0.368498
O      13.35344      7.66216     11.46078         0.415311     -0.121670     -0.428756
O       1.99922     11.45900      2.79038        -0.423153     -0.181446      0.039635
O       1.81547     11.49744     15.81768         0.345466      0.239219     -0.583806
O      13.34479     11.47621      2.73098        -0.059273     -0.025014     -0.267474
O      13.51656     11.50960     15.95535         0.056755      0.202712     -1.116874
O       1.91584     11.47069      7.07743        -0.097685      0.272791     -0.157235
O      13.37221     11.50955      6.94967         0.270226     -0.712435      0.183889
O       1.93322     11.46093     11.44416        -0.535923      0.686765     -0.289402
O      13.27708     11.44301     11.31850         0.324041      0.272408     -0.154352
O       5.62580      3.92702      2.68615         0.185746     -1.182336     -0.331923
O       5.79663      3.83088     15.87027        -0.637534     -0.745205     -0.203533
O       5.63544     15.29773      2.54097         0.253921      0.363907      0.198706
O       5.58307     15.27522     15.60359         0.321872      1.876309      0.415882
O       5.77506      3.74951      7.22546        -0.387761      0.242028     -1.287333
O       5.65856     15.33505      7.06308         0.664019      0.069863     -0.539511
O       5.77775      3.75805     11.33253        -0.136819      0.218824      0.241789
O       5.80450     15.27855     11.49361        -0.377674      0.084144     -0.131611
O       5.92787      7.75930      2.83217        -0.880434     -0.783470     -0.512739
O       5.72478      7.70275     15.75853         0.477778     -0.496520     -0.660833
O       5.61558      7.65233      7.05681         0.431735     -0.898710     -0.241266
O       5.78829      7.61904     11.29464        -0.558609      0.221092      0.585675
O       5.57035     11.52164      2.65938         0.358745     -0.209122     -0.450759
O       5.75494     11.53941     15.86952        -0.441201     -0.937094     -0.398291
O       5.57911     11.47891      7.07160         0.732530      0.486041     -0.431520
O       5.75702     11.49435     11.46560        -0.023901      0.389435     -0.719404
O       9.54833      3.87089      2.73684        -0.183158     -0.193037     -0.257816
O       9.57319      3.70977     15.73880         0.023541      0.840070     -0.128970
O       9.39683     15.34715      2.64179         0.507897      0.215529     -0.048434
O       9.51576     15.31850     15.85681         0.354056      0.056862     -0.477770
O       9.56487      3.80172      6.96137        -0.109858     -0.090550     -0.002281
O       9.50562     15.30802      7.19573         0.022535     -0.268735     -0.973491
O       9.52092      3.81009     11.40674        -0.062970      0.133580     -0.426131
O       9.63923     15.32089     11.30075         0.289949     -0.581791      0.104897
O       9.45512      7.73551      2.62287         0.126573     -1.594813      0.184610
O       9.59634      7.68823     15.64062        -0.125154     -0.179473      0.182899
O       9.52480      7.64597      7.07319         0.124602     -0.075870     -0.397276
O       9.48833      7.58780     11.47177        -0.303086      0.228440     -0.576550
O       9.56474     11.52902      2.76833        -0.064078      0.240335     -0.303484
O       9.62116     11.47040     15.87007        -0.414376     -0.021453     -0.601871
O       9.57146     11.44462      6.89425        -0.239121      0.717875      0.475672
O       9.52860     11.39952     11.54194         0.797917      1.292097     -0.551690
