  # total energy = -7882.80580398 
CRSYTAL
PRIMVEC
    15.3600000000000000    0.0000000000000000    0.0000000000000000
     0.0000000000000000   15.3600000000000000    0.0000000000000000
     0.0000000000000000    0.0000000000000000    17.440000000000000
PRESSURE
0.685289 0.876583 1.30223 0.293306 0.192709 -0.013361
PRIMCOORD
320 1
Pb       3.76169      3.86425      4.23514         0.326483     -0.318591     -0.057931
Pb       3.78024      3.86966     17.33717        -0.060997      0.188329     -0.221869
Pb       3.82969      0.01764      4.23594         0.268316     -0.192475     -0.589149
Pb       3.91199      0.08582      0.03222        -0.415230     -0.295440      0.084053
Pb      15.23461      3.86756      4.29576         0.614155     -0.014202      0.346361
Pb      15.23762      3.81107     17.41002         0.853204      0.225996     -0.305511
Pb      15.22038     15.28042      4.29955         0.501402     -0.198258     -0.345880
Pb      15.34790     15.31916      0.03005         0.472308      0.076655     -0.350104
Pb       3.87112      3.83652      8.66027         0.176232     -0.184778      0.093847
Pb       3.79257     15.26839      8.79017         0.359201      0.205002     -0.420818
Pb       0.10239      3.67028      8.66974        -0.048401      0.278777     -0.058186
Pb       0.11360     15.33816      8.61245        -0.255493      0.395945      0.157833
Pb       3.74664      3.91230     13.08244         0.171139      0.062299     -0.584390
Pb       3.90170     15.26612     13.23955        -0.002351     -0.184264     -0.923176
Pb      15.25474      3.83759     13.01656         0.102910     -0.080781     -0.449724
Pb       0.00564      0.04556     13.00153        -0.063582      0.073971     -0.034645
Pb       3.82208      7.62999      4.26306        -0.343295      0.471070      0.723137
Pb       3.80020      7.75526      0.00263         0.012677     -0.804423     -0.435595
Pb      15.25579      7.51254      4.34340         0.279880      0.620339     -0.150802
Pb       0.06132      7.71695     17.37451        -0.614761     -0.412147      0.075758
Pb       3.88628      7.54406      8.75184         0.113734      0.247281     -0.651325
Pb       0.00073      7.64160      8.73742         0.019560      0.624120     -0.668129
Pb       3.78617      7.78676     13.07389        -0.267590     -0.649358     -0.636859
Pb       0.03981      7.70866     12.91813        -0.278419     -0.146182      0.456855
Pb       3.77912     11.44199      4.29419         0.436506      0.429092      0.025713
Pb       3.81631     11.40905     17.43114        -0.099190      0.908551      0.156626
Pb      15.35456     11.47161      4.27784        -0.197845      0.476422     -0.031292
Pb       0.04564     11.42191      0.02060        -0.236676      0.447194     -0.061740
Pb       3.70988     11.51507      8.68921         0.320447      0.255193     -0.690974
Pb       0.03991     11.48935      8.62633         0.141046     -0.038675     -0.384382
Pb       3.76601     11.55455     13.03940        -0.230859      0.469715      0.042436
Pb      15.19668     11.42856     13.11806         0.262905      0.433758     -0.508738
Pb       7.61838      3.88259      4.37096         0.233249     -0.094033     -0.535428
Pb       7.68023      3.86937     17.28054        -0.536443      0.184659      0.447566
Pb       7.62292      0.06637      4.18736         0.437902     -0.615156      0.314516
Pb       7.77117     15.31431      0.00044        -0.064699     -0.024886     -0.215894
Pb       7.69491      3.68396      8.75048         0.469076      0.476558     -0.294650
Pb       7.64105     15.29355      8.64808         0.373403     -0.061415     -0.142315
Pb       7.53331      3.70266     13.12117         0.503985      0.703514     -0.155270
Pb       7.65269     15.15919     13.17604        -0.540306     -0.172879     -0.763360
Pb       7.57251      7.71408      4.32725         0.209585      0.271740     -0.151577
Pb       7.79780      7.54276     17.39910        -0.317077      0.059083     -0.079631
Pb       7.54544      7.68028      8.68041         0.455888     -0.205485      0.113921
Pb       7.61001      7.60871     12.99225         0.352936      0.313261      0.341628
Pb       7.67617     11.52527      4.29202        -0.258546     -0.039591      0.106773
Pb       7.72802     11.47332      0.00973         0.018218      0.090946     -0.500891
Pb       7.68244     11.37900      8.74073        -0.657849      0.750050     -0.153212
Pb       7.58955     11.43355     13.10958         0.261663      0.616111     -0.181841
Pb      11.50076      3.86312      4.40558        -0.213616      0.074690     -0.301748
Pb      11.36092      3.80993     17.29722         0.743809     -0.080428     -0.020935
Pb      11.39784      0.12491      4.26194         0.062856     -0.887231      0.395616
Pb      11.68949      0.01435     17.31905        -0.598707     -0.296470     -0.158674
Pb      11.60410      3.77183      8.74892        -0.579814     -0.396007     -0.725153
Pb      11.48668     15.20936      8.62941         0.054032      0.837202     -0.092274
Pb      11.44288      3.88991     13.00118         0.541045     -0.444156     -0.129565
Pb      11.47255     15.29360     13.01887         0.563720      0.393290     -0.027178
Pb      11.47681      7.73691      4.34855        -0.059756      0.315332     -0.272754
Pb      11.49531      7.60436     17.38644         0.321289      0.248957     -0.485498
Pb      11.42360      7.57326      8.70886        -0.108283      0.635382     -0.475116
Pb      11.60493      7.74807     12.85774        -0.007243     -0.104478      0.838496
Pb      11.42303     11.53243      4.43985         0.241284     -0.116380     -0.619572
Pb      11.63712     11.55582      0.01404        -0.498484      0.028625     -0.421033
Pb      11.40212     11.52693      8.76074         0.138814     -0.024468     -0.247944
Pb      11.38439     11.48759     13.00019         0.279809      0.154023      0.111947
Ti       1.82743      1.96408      2.35906         1.279271     -1.065816     -0.495597
Ti       1.94028      1.82962     15.34803         0.402905      1.204963      0.702604
Ti       1.96071     13.42329      2.28874         0.283100     -0.269901      1.574994
Ti       1.89405     13.42468     15.47015         0.518778     -0.009863      0.114675
Ti      13.37948      1.94765      2.33114         1.113412     -0.531989      0.214805
Ti      13.55247      1.98219     15.38042        -0.464350     -0.846935     -0.856293
Ti      13.39860     13.44514      2.23541         0.604495     -0.224280      2.157560
Ti      13.51189     13.44974     15.32675        -0.827375     -0.187019      0.408990
Ti       2.09568      1.94553      6.59043        -0.525831      0.089135      0.491770
Ti       1.98771     13.54436      6.54020        -0.020027     -0.973748      1.257318
Ti      13.51432      1.88159      6.70598        -0.644286      0.187488     -0.137255
Ti      13.48932     13.40691      6.69999        -0.489869      0.276224      0.052299
Ti       2.07651      1.91620     11.06743        -0.835015     -0.336136      1.161459
Ti       1.78091     13.44515     10.99573         1.263876      0.155759      2.014724
Ti      13.45252      1.93080     10.98192         0.270019     -0.554222      1.282825
Ti      13.44284     13.53246     10.90584         0.408899     -0.576791      1.619931
Ti       1.91432      5.75978      2.22114        -0.840530      0.467264     -0.049786
Ti       1.81858      5.72480     15.30410         1.196105     -0.296563      1.130962
Ti      13.41490      5.66668      2.22100        -0.283446      1.876577     -0.201153
Ti      13.46881      5.77639     15.35688        -0.062737      0.952026      0.977170
Ti       1.87713      5.80300      6.74795         0.398968     -0.007091     -0.294541
Ti      13.42025      5.77880      6.72977         0.280942     -0.225414      2.068104
Ti       1.87291      5.78574     10.96935         0.720541      0.118221      2.272827
Ti      13.41097      5.80675     10.82698         0.918197     -0.313318      3.095141
Ti       1.78000      9.56449      2.32293         0.673011      0.258459      0.885743
Ti       1.88230      9.55770     15.39138        -0.898346      0.734421     -1.068902
Ti      13.35762      9.61951      2.27060        -0.282157     -0.053705     -0.362038
Ti      13.36189      9.60140     15.42420         0.185044     -0.064727      0.281840
Ti       1.88274      9.60929      6.59746        -0.673985      0.087525      0.305438
Ti      13.35095      9.67064      6.71774         0.831267     -0.844296      0.668021
Ti       1.84791      9.65688     10.95638         0.195848     -0.973648      0.685820
Ti      13.42938      9.69076     10.91737        -0.083547     -0.236455      1.216555
Ti       5.82181      1.94177      2.24325        -0.541516      0.287256      1.541439
Ti       5.79098      1.93362     15.45519        -0.758557     -0.425319      1.753822
Ti       5.88104     13.41046      2.26234        -1.291840     -0.080955      1.306280
Ti       5.74395     13.39764     15.55559         0.016379      0.388933     -1.105291
Ti       5.87761      1.85296      6.65024        -0.978130      0.002227      1.075957
Ti       5.78128     13.46092      6.66462        -0.000402     -1.592727     -0.634266
Ti       5.83652      1.93546     10.99805        -0.964773     -0.593696      0.646075
Ti       5.71130     13.45357     10.97137        -0.026013      0.608485      0.902555
Ti       5.77835      5.75331      2.33471         0.409799     -0.375541     -0.726531
Ti       5.73304      5.83759     15.35483        -0.633072     -0.520732      1.546294
Ti       5.86632      5.63628      6.64824        -0.311415      1.294223      0.572234
Ti       5.76898      5.79774     11.03560        -0.988712     -0.611715     -0.449909
Ti       5.65452      9.57331      2.27236         0.548750      0.159832      0.379330
Ti       5.73533      9.56312     15.39509         0.526134      0.378853      0.990211
Ti       5.64318      9.58877      6.74868         0.380965      0.655571     -1.091661
Ti       5.68310      9.66385     11.09503         0.395928     -0.287560     -0.181470
Ti       9.65856      1.93849      2.20604        -1.020769     -0.509817      1.358723
Ti       9.61699      1.83864     15.31965         0.265128     -0.570868      1.183413
Ti       9.72575     13.38059      2.26630        -1.679419      0.243972      0.963013
Ti       9.61763     13.39694     15.42880         0.648304     -0.250099      0.463119
Ti       9.67740      1.93358      6.59055        -1.144190     -0.202851      1.630170
Ti       9.59639     13.41651      6.66442        -0.871043      0.753398      0.049611
Ti       9.58170      1.93342     11.07127         0.562195     -0.426119      0.310463
Ti       9.67984     13.49806     11.00166        -1.709975     -0.816663     -0.091389
Ti       9.61863      5.73316      2.38074        -0.433090      0.104994      0.840308
Ti       9.65104      5.64071     15.28832        -0.399586      1.482013      0.314191
Ti       9.63254      5.76686      6.61225        -1.216363     -0.335177      0.248357
Ti       9.60365      5.74668     11.00356        -1.089695     -0.447669      0.066833
Ti       9.56083      9.52347      2.22073        -0.398091      0.888108      1.423116
Ti       9.57308      9.56037     15.43413         0.153618     -0.182464     -1.127311
Ti       9.56595      9.61877      6.80394        -0.541528     -0.763282     -0.194480
Ti       9.53657      9.59326     11.11456         0.098804      0.667436     -0.000169
O       1.88969      1.86598      0.61126        -0.237858      0.406574      0.123361
O       2.02215      1.70503     13.60993        -0.107701      0.613464     -0.548763
O       1.88779     13.29596      0.58861        -0.189220      0.497192     -1.646002
O       2.01671     13.28233     13.70800        -0.472824      0.559124      0.739335
O      13.60627      1.97885      0.58865        -0.680428     -0.043256     -0.522378
O      13.50377      1.89005     13.63700         0.030254      0.237150      0.046258
O      13.39816     13.52048      0.52478         0.137356     -0.006856     -0.842307
O      13.55005     13.39087     13.56166        -0.426226     -0.148213      0.634422
O       2.08915      1.89865      4.81733        -0.185905      0.345048      0.246846
O       1.96537     13.53662      4.80243        -0.150009     -0.062339     -0.007820
O      13.33821      2.04406      4.93570         0.472972     -0.299588      0.330054
O      13.37121     13.30631      4.95206         0.344315      0.347428     -0.112825
O       2.01159      1.94711      9.33140         0.008780     -0.027698     -0.647877
O       2.07620     13.43541      9.29396        -0.614292      0.242017     -1.117914
O      13.47859      1.84759      9.25502         0.051773      0.244613     -1.408786
O      13.45999     13.55463      9.16195        -0.090825     -0.078818      0.073657
O       1.91151      5.79254      0.46618        -0.045509     -0.037947      0.304020
O       1.87364      5.78357     13.56406        -0.058692      0.011438     -0.038772
O      13.44893      5.73735      0.44711        -0.200830     -0.342282      0.949572
O      13.45929      5.85168     13.64690        -0.049706     -0.180173     -1.070737
O       1.87156      5.73487      4.97663        -0.343426     -0.098748      0.348512
O      13.67501      5.63593      5.03441        -0.717836     -0.106133     -1.610083
O       1.96267      5.90383      9.25338        -0.024068     -0.324722     -1.613552
O      13.39548      5.87918      9.10561        -0.223134     -0.391932      0.007887
O       1.73125      9.60084      0.55864         0.611254     -0.162726     -0.621645
O       1.79770      9.69647     13.56906         0.270582     -0.397453      1.669847
O      13.27306      9.57190      0.46671         0.385779     -0.006389      1.565343
O      13.44108      9.73102     13.62493        -0.263623     -0.211441      0.458195
O       1.73745      9.54694      4.84708         0.383928      0.302947     -0.019546
O      13.25441      9.67104      4.98966         0.270574      0.289363     -0.914957
O       1.76104      9.60675      9.20846         0.457464     -0.087300     -0.472441
O      13.38149      9.46467      9.21759         0.110260      0.433128     -0.916959
O       5.83917      1.97930      0.54431        -0.219514      0.122661     -1.864544
O       5.72893      1.80883     13.75965         0.166084      0.333616     -1.214859
O       5.85086     13.33790      0.52255         0.313241     -0.055031     -0.197827
O       5.70541     13.50449     13.73426         0.211669      0.022164      0.654158
O       5.75840      2.00069      4.93498         0.251014     -0.299110     -0.862346
O       5.84163     13.48624      4.87685        -0.143479     -0.039071      0.321558
O       5.96726      1.79471      9.26442        -0.304205      0.133688     -0.489054
O       5.65152     13.38779      9.19150         0.074678      0.219293      1.019167
O       5.90306      5.73453      0.56868        -0.427554      0.051059      0.214702
O       5.77050      5.75316     13.63650        -0.098837      0.245500     -0.988808
O       5.83938      5.77762      4.87218        -0.113175     -0.247754      0.167625
O       5.92597      5.87618      9.24457        -0.820044     -0.179845      0.691415
O       5.61285      9.57520      0.48694         0.216896      0.162224      0.806317
O       5.80912      9.59293     13.64108        -0.289510     -0.096507     -0.056759
O       5.67549      9.54434      4.96341         0.204688     -0.243724      0.085466
O       5.74619      9.62949      9.32544        -0.452178      0.079777      0.571035
O       9.89274      1.84917      0.49213        -0.670985      0.564862     -0.644691
O       9.53621      1.93284     13.59816         0.234174     -0.267877     -0.644686
O       9.73568     13.39548      0.54452        -0.385685      0.069628     -1.173786
O       9.64355     13.43180     13.66161        -0.143792      0.211803     -0.432556
O       9.61606      1.85046      4.86728         0.173585      0.562258     -1.003292
O       9.55812     13.42611      4.89798         0.312114     -0.325679      0.384343
O       9.54113      1.89672      9.34692        -0.133269      0.102768     -0.965321
O       9.67304     13.45327      9.21010         0.067401      0.103992      0.726879
O       9.57298      5.84000      0.62475         0.251153     -0.485622     -0.743963
O       9.59153      5.54715     13.56463         0.131624      0.395323     -0.488250
O       9.62475      5.72483      4.79685         0.015599      0.003787      0.835498
O       9.47750      5.73540      9.25096         0.602490     -0.065995      1.163856
O       9.53049      9.45147      0.49170         0.156347      0.133120     -1.078208
O       9.56886      9.66877     13.63056         0.194366     -0.076997      0.223901
O       9.65852      9.62930      5.07108        -0.377576     -0.093804     -0.450259
O       9.57554      9.67820      9.38072         0.047164     -0.158047     -1.260163
O       3.91548      2.01012      2.72316        -0.638226     -0.338547     -0.142928
O       3.82160      1.91522     15.92524         1.150819     -0.050854     -0.226487
O       3.87318     13.40581      2.64388         0.673515      0.115767      0.139708
O       3.90484     13.46892     15.97152        -1.483165     -0.254174     -0.193387
O      15.30121      1.92062      2.76601         0.053019     -0.050148      0.162975
O       0.09452      1.95133     15.76745        -0.816839      0.052980      0.312801
O      15.33771     13.41535      2.73226        -0.279400      0.421144     -0.019396
O      15.35318     13.48121     15.87918         0.553098     -0.135777     -0.241721
O       3.89775      1.92794      7.17824         0.564171      0.208772     -0.339876
O       3.82034     13.39914      7.13048        -0.054689      0.456496     -0.391467
O       0.13649      1.90876      7.02778        -0.920432      0.028495     -0.019720
O       0.02599     13.54783      7.13857         0.875944     -0.441629     -0.685061
O       3.88964      1.92806     11.45936        -0.250097     -0.451012      0.079134
O       3.69932     13.49140     11.57145         1.172430     -0.488709     -0.533781
O      15.35662      1.93837     11.45060         0.465140      0.010325      0.089573
O      15.29340     13.46531     11.50136         0.283505     -0.228560     -0.806586
O       3.73147      5.86452      2.70060         0.787141     -0.530139     -0.244518
O       3.79921      5.84925     15.78136         0.238522     -0.116700     -0.061607
O      15.27831      5.68967      2.70719         0.142573      0.243962     -0.052412
O      15.35489      5.75395     15.85065         0.419317      0.078184     -0.270610
O       3.89834      5.75287      7.11599        -0.001166     -0.141308      0.024259
O      15.33540      5.68167      7.24856         0.609988      0.355016     -0.419394
O       3.81190      5.94588     11.45960         0.427126     -0.455599     -0.114280
O      15.31748      5.83457     11.40521        -0.350314     -0.578560     -0.716703
O       3.73579      9.59696      2.84364         0.610035     -0.836467     -0.907017
O       3.76802      9.63135     15.87778        -0.125133     -0.200932     -0.669537
O      15.32842      9.73543      2.72935        -1.542604     -0.450768     -0.282140
O      15.27504      9.54398     15.87960         0.737421      0.771667     -0.423371
O       3.73565      9.64838      7.01558         0.394622     -0.180031      0.452790
O      15.29392      9.59047      7.08917         0.190022      0.199570      0.086010
O       3.76773      9.60078     11.51375         0.768035      0.031416     -0.477226
O      15.32587      9.55079     11.35370        -0.310955      0.368404      0.079867
O       7.73370      1.90383      2.55416        -0.301001      0.279430      0.281669
O       7.67790      1.89670     15.82713         0.727118     -0.106209     -0.138983
O       7.75467     13.40161      2.73538        -1.062817      0.009160     -0.370403
O       7.71001     13.40755     15.86856         0.487201      0.054378      0.107992
O       7.70465      1.87382      7.07965         0.666151     -0.299833     -0.050310
O       7.64676     13.35444      7.11249         0.998197      0.517325      0.061485
O       7.67563      2.05324     11.52961        -0.407917     -0.512593     -0.190906
O       7.57036     13.46551     11.49322         0.819688      0.164141     -0.349757
O       7.67790      5.77986      2.69236        -0.133302      0.099251      0.457848
O       7.73658      5.76414     15.78007        -0.130229      0.008551     -0.152604
O       7.72815      5.82737      7.05569        -0.663038     -0.264009     -0.406291
O       7.58381      5.71435     11.53434         1.032898     -0.149181     -0.160764
O       7.66069      9.57630      2.69254        -0.701293     -0.231250     -0.127704
O       7.65248      9.54919     15.77338        -0.136772      0.175538      0.237335
O       7.56220      9.61332      7.23875         1.550597     -0.169114     -0.436246
O       7.67547      9.67620     11.46397        -1.006261     -0.219983      0.233987
O      11.53264      1.98204      2.76505        -0.211344     -0.040034     -0.145566
O      11.61130      1.90177     15.78994        -0.451234      0.385942     -0.248888
O      11.48956     13.43709      2.73344         1.229165      0.065165      0.192894
O      11.56701     13.44711     15.84499         0.182308      0.206138     -0.408603
O      11.49315      1.88405      7.04750         0.885368      0.418342      0.257126
O      11.54032     13.39642      7.14855        -0.531461     -0.144731     -0.349660
O      11.54202      1.88284     11.33951        -0.393208      0.362932      0.528449
O      11.51556     13.46781     11.46690         0.135608     -0.023552     -0.450564
O      11.51823      5.76701      2.74605         0.435046     -0.280848     -0.023700
O      11.57800      5.77271     15.77844        -1.186074     -0.846166     -0.069063
O      11.43144      5.67120      7.17539         1.228140      0.109981     -0.383256
O      11.54027      5.70514     11.46314        -0.086330      0.428196     -0.893655
O      11.41714      9.59550      2.78447         0.897986      0.239604     -0.250046
O      11.44961      9.58255     15.83569         0.684374     -0.007160     -0.132730
O      11.48207      9.55077      7.09059        -0.350258      0.444742      0.785952
O      11.49744      9.64717     11.35238         0.393184     -0.209719      0.481438
O       1.92772      3.86982      2.56244        -0.202261      0.052203      0.603375
O       2.06976      3.83402     15.68042        -0.657468      0.203247     -0.030889
O       1.96485     15.31525      2.64906        -0.328652      1.066132      0.304275
O       1.96578      0.06813     15.94309        -0.190491     -1.830186     -0.163978
O      13.42574      3.86799      2.70565        -0.313191     -0.688879      0.089692
O      13.56772      3.88682     15.61722        -0.380929     -0.856891      0.733551
O      13.39246     15.35824      2.81512        -0.034778      0.473111     -0.536076
O      13.54409     15.33133     15.70920        -0.210675      0.734492      0.442690
O       1.99473      3.83441      7.22857        -0.180082      0.027447     -0.622314
O       2.04640      0.07035      7.09591        -0.284104     -0.527661     -0.241143
O      13.45199      3.80998      7.18808        -0.166041     -0.644211      0.016224
O      13.46896     15.32583      7.09199        -0.055904      1.074962     -0.353580
O       2.00349      3.91110     11.51667        -0.420292     -0.556726     -0.440521
O       1.86733     15.32860     11.47835         0.051593      0.308256     -0.553991
O      13.50834      3.80834     11.44483        -0.644316      1.350466     -0.674501
O      13.42906     15.35793     11.48173        -0.059916      0.019463     -0.244899
O       1.68486      7.67994      2.71403         0.579741     -0.486857     -0.190280
O       1.83887      7.71321     15.78918         0.314589     -0.026452     -0.240220
O      13.33010      7.74870      2.79202         0.681091     -0.549387     -0.391838
O      13.44181      7.71057     15.81426        -0.272008     -0.019402     -0.132750
O       1.92184      7.72008      6.99438        -0.242167     -0.848142      0.480898
O      13.39163      7.63890      6.98481        -0.095633      0.156071      0.173700
O       1.90822      7.64570     11.47419        -0.221021      1.036771     -0.206957
O      13.49272      7.69782     11.41934        -0.901295     -0.348031     -0.602920
O       2.00328     11.49383      2.66902        -0.700615     -0.163038      0.455934
O       1.80456     11.56773     15.87961         0.493080     -1.098808     -0.152582
O      13.44650     11.57885      2.67175        -0.659186     -0.945036     -0.171580
O      13.41148     11.55230     15.97730         0.421464     -0.426820     -1.028501
O       1.93957     11.59298      7.03219        -0.734965     -0.167222     -0.090480
O      13.45679     11.57188      7.18320        -0.123713     -0.945242     -0.012707
O       1.88142     11.45257     11.30113        -0.102917      1.363416      0.274077
O      13.44274     11.58524     11.33553        -0.094460     -0.524601     -0.318774
O       5.77971      3.88031      2.75848        -0.052425     -0.067065      0.041007
O       5.78067      3.93195     15.75132         0.000159     -1.014568      0.223994
O       5.76786      0.00376      2.66762         0.209085     -0.198230     -0.366624
O       5.80503     15.29319     15.94531         0.093263      1.373951     -0.003987
O       5.94913      3.77048      7.06531        -0.730510      0.790534      0.040852
O       5.80614     15.29142      7.09317        -0.272078      1.186995      0.059671
O       5.49114      3.83222     11.18565         1.087307      0.803876      0.876626
O       5.75542      0.04868     11.50209        -0.063669     -0.745537     -0.193244
O       5.66143      7.64777      2.73382         0.372678      0.649820     -0.036112
O       5.64997      7.68418     15.92191         0.597657      0.463308     -0.627047
O       5.78976      7.70333      7.13874        -0.546110     -0.787283     -0.054877
O       5.75842      7.72570     11.54233         0.066487      0.401180     -0.330327
O       5.70590     11.41956      2.80292         0.346610      0.614913     -0.646045
O       5.75147     11.51976     15.81281         0.075891     -1.396937      0.191304
O       5.79834     11.52172      7.00424        -0.634443     -0.270967      0.531926
O       5.74016     11.60508     11.62055        -0.473754     -0.883053     -0.900663
O       9.54443      3.79539      2.73560         0.531459      0.450000     -0.216943
O       9.56299      3.73659     15.64500         0.571941      0.538334      0.835991
O       9.52126     15.35129      2.65328         0.845465      0.505899      0.056931
O       9.66615     15.31991     15.90548        -0.309586      0.614894     -0.636755
O       9.51108      3.86022      7.10927         0.420978     -0.575928     -0.438556
O       9.60622     15.34954      6.95768         0.036202     -0.285974      0.470658
O       9.57997      3.81766     11.43835         0.291088      0.899530      0.024023
O       9.61140      0.00418     11.46369        -0.350274     -0.318669      0.172610
O       9.54897      7.68639      2.77070         0.338063     -0.305642      0.023058
O       9.66570      7.58776     15.65903        -0.306651      0.310068      0.354475
O       9.57018      7.61811      7.19977         0.325331      0.832059     -0.455879
O       9.55192      7.68411     11.41998         0.208144     -0.887949      0.097001
O       9.54212     11.49440      2.64767         0.277435     -0.425842      0.102987
O       9.68948     11.53199     15.78576        -0.593535     -0.706719      0.357708
O       9.51934     11.52883      7.16119         0.728760     -0.534081      0.035807
O       9.54736     11.57611     11.39270         0.393274      0.252608      0.387232
