  # total energy = -7877.53518348 
CRSYTAL
PRIMVEC
    15.2000000000000000    0.0000000000000000    0.0000000000000000
     0.0000000000000000   15.2000000000000000    0.0000000000000000
     0.0000000000000000    0.0000000000000000    17.000000000000000
PRESSURE
7.16461 7.52698 3.00174 0.411181 0.114073 -0.068542
PRIMCOORD
320 1
Pb       3.86860      3.76353      4.21935        -0.174463      0.241860     -0.183808
Pb       3.58674      3.70090      0.04094         0.842307      0.311937     -0.319551
Pb       3.89712     15.03342      4.26451        -0.555076      0.591192     -0.785914
Pb       3.77590     15.17218      0.02420        -0.150623      0.013849     -0.050321
Pb      15.14127      3.77385      4.28759        -0.216929     -0.166067     -0.499312
Pb      15.09829      3.77134     16.97763        -0.367220     -0.141193     -0.193849
Pb      15.18786     15.06400      4.11130         0.396965     -0.182885      0.454747
Pb      15.17704      0.04034     16.97599         0.216663      0.091586     -0.043350
Pb       3.61589      3.70090      8.56597        -0.224917      0.634861     -0.630166
Pb       3.74348      0.12866      8.27369        -0.120603     -0.492219      0.563570
Pb      15.02749      3.81967      8.35871         0.761769      0.261352      0.268963
Pb       0.17692      0.05900      8.52540        -0.354452     -0.222882     -0.203439
Pb       3.75662      3.79245     12.85798        -0.037838      0.344959     -0.544224
Pb       3.79136     15.09703     12.63151         0.566271      0.430995      0.113752
Pb       0.02549      3.61335     12.81912        -0.302748      0.857818     -0.308036
Pb      15.12440     15.07676     12.59550        -0.002899      0.253788      0.239632
Pb       3.78024      7.53294      4.17720        -0.127653     -0.112197      0.058232
Pb       3.78591      7.51337      0.11216         0.165475     -0.077972     -0.976809
Pb       0.02254      7.41368      4.19266        -0.490954      0.860399      0.293707
Pb       0.12521      7.62461      0.14329        -0.465903      0.246493     -0.840683
Pb       3.70531      7.52180      8.56550         0.357331      0.005673     -0.315635
Pb       0.03403      7.65750      8.51741        -0.385934     -0.155310      0.085778
Pb       3.81413      7.74995     12.85783         0.421101     -1.166845     -0.469658
Pb      15.16061      7.72619     12.80632         0.176659     -0.683803     -0.191623
Pb       3.93507     11.36518      4.19442        -0.831952      0.228391     -0.237452
Pb       3.66098     11.37480     16.78597         0.230774     -0.065018      0.794664
Pb      15.17153     11.27813      4.24971         0.363870      1.015321     -0.203976
Pb      15.14932     11.41074      0.04670         0.494216     -0.771548     -0.229256
Pb       3.81483     11.32924      8.35835         0.081516      0.221449      0.166949
Pb      15.18162     11.34008      8.47328        -0.166479     -0.269862      0.090520
Pb       3.86512     11.40888     12.68402         0.085908      0.524229      0.293946
Pb       0.00120     11.56670     12.54011         0.437889     -0.805569      0.831180
Pb       7.64668      3.82350      4.25631        -0.764289     -0.271602     -0.353249
Pb       7.60070      3.77499     16.94151        -0.507058      0.103550     -0.103835
Pb       7.59083      0.10176      4.26828         0.167383     -0.029893     -0.943444
Pb       7.50317      0.03631     16.98346         0.337732     -0.273260      0.207811
Pb       7.46643      3.85325      8.52034         0.111135     -0.219062     -0.098192
Pb       7.52356      0.01133      8.49650        -0.182756     -0.039904     -0.289880
Pb       7.56469      3.66316     12.66115        -0.182082      0.626245      0.401192
Pb       7.66460      0.05573     12.67815        -0.780474     -0.353791      0.169105
Pb       7.42393      7.62104      4.36827         0.154285     -0.305765     -0.862155
Pb       7.61875      7.39771     16.94960        -0.477615      0.927850     -0.151162
Pb       7.62875      7.53526      8.61875        -0.441312     -0.205936     -0.583293
Pb       7.77523      7.56076     12.85434        -0.802077     -0.157754     -0.286560
Pb       7.67834     11.43496      4.14027         0.100454      0.443418      0.485995
Pb       7.60365     11.29994     16.96311        -0.392781      0.081128      0.337293
Pb       7.59756     11.25324      8.37808        -0.450967      0.511229      0.051839
Pb       7.63397     11.31892     12.80997        -0.031288      0.187041     -0.648961
Pb      11.43875      3.69320      4.32355        -0.213500     -0.159154     -0.263195
Pb      11.43235      3.94497     16.98233        -0.120901     -0.558627     -0.214722
Pb      11.28881      0.01005      4.27729         0.023609      0.029338     -0.189656
Pb      11.27310      0.00139     16.95801         0.498152     -0.119649      0.267616
Pb      11.31828      3.73548      8.48595        -0.259015      0.679749      0.100818
Pb      11.38063     15.13946      8.64567         0.275634      0.024403     -0.832410
Pb      11.46610      3.80362     12.71170         0.117948      0.069716     -0.380615
Pb      11.32768     15.19146     12.83591         0.191230     -0.174280     -0.537266
Pb      11.36887      7.53734      4.33827         0.155677     -0.258882     -0.474899
Pb      11.36477      7.55397      0.08289        -0.269360      0.159710     -0.108394
Pb      11.43880      7.67578      8.35298         0.058150     -0.855006      0.441323
Pb      11.39140      7.57477     12.62828        -0.215758      0.297430      0.699725
Pb      11.43420     11.51196      4.26269        -0.001494      0.084105     -0.118433
Pb      11.31297     11.25502      0.12181         0.173919      0.110826     -0.304563
Pb      11.35517     11.32561      8.51775         0.418588      0.373530     -0.440542
Pb      11.49950     11.36996     13.00391        -0.300980     -0.048597     -0.931408
Ti       1.79124      1.92475      2.27316         1.422896     -1.064571     -0.661679
Ti       1.85137      1.87515     15.01325         0.334508     -0.131301      0.628366
Ti       1.95710     13.25076      2.10011        -0.129345      0.318752      0.983223
Ti       1.88835     13.32274     14.85346         0.187244     -0.943886      1.630499
Ti      13.22526      1.81134      2.28424         0.218425      1.340618     -0.510394
Ti      13.18347      1.86125     14.97341         0.976825      0.817333     -0.223495
Ti      13.33870     13.29315      2.06198         0.443725     -0.807893      1.661417
Ti      13.33366     13.23861     15.03285        -0.757184      0.395322     -0.417180
Ti       1.74114      1.92534      6.25182         1.109839     -0.276377      0.011314
Ti       1.83178     13.23729      6.45446         0.819292      0.596689     -0.833486
Ti      13.20688      1.82262      6.56367        -0.175083      0.234227     -0.974158
Ti      13.36311     13.29838      6.45489        -1.642425     -0.034160     -0.603071
Ti       1.79056      1.87921     10.79954         1.202823      0.911491     -1.239976
Ti       2.02063     13.31435     10.62379        -0.414680     -0.202154      0.203648
Ti      13.27139      1.89697     10.66006        -0.356378      0.868016      0.702438
Ti      13.26513     13.28602     10.73598        -0.005005     -0.094336     -0.807988
Ti       1.77234      5.63073      2.20315         2.104167      0.235909      0.087060
Ti       1.82168      5.60963     14.97735         0.812886      1.836890     -0.715039
Ti      13.13144      5.65931      2.20498         0.971486      0.136460      0.523556
Ti      13.24664      5.74050     14.86163         0.264869      0.141384      1.261191
Ti       1.78843      5.69959      6.37058         1.062542     -0.955976      0.921828
Ti      13.18584      5.66165      6.38038         0.165121      0.324011     -0.084502
Ti       1.83791      5.72053     10.69357         0.060167     -0.867187      0.875668
Ti      13.28814      5.77240     10.66192         0.451891     -0.456221      2.204126
Ti       1.86116      9.47799      2.27831         0.001909      0.469790     -1.318690
Ti       1.88237      9.44422     14.95927        -0.978515     -0.159309      0.872728
Ti      13.23317      9.52328      2.36798         0.910212     -0.587349     -1.468109
Ti      13.26880      9.45526     15.10321         0.421535     -0.139261     -0.757152
Ti       1.80627      9.41248      6.44080         0.642335      0.345488      1.534107
Ti      13.22884      9.50369      6.30923         1.261564     -0.181519      0.785769
Ti       1.95374      9.46038     10.79862        -0.724041     -0.024333     -1.245614
Ti      13.33579      9.50763     10.83086        -0.933169     -0.863020     -0.815116
Ti       5.61229      1.93668      2.15474         0.522549     -0.074894      0.381056
Ti       5.68275      1.84411     15.03453        -0.576705      1.304405     -0.442846
Ti       5.78259     13.26762      2.16702        -0.088342      1.170011     -0.305082
Ti       5.71901     13.29842     14.97539        -0.243170     -0.069611     -1.033439
Ti       5.58446      1.93490      6.34710         0.477838      0.811329      0.337661
Ti       5.73964     13.34766      6.43977        -0.031432     -1.093928      0.919171
Ti       5.56085      1.94256     10.63802        -0.043879     -0.643444      0.490166
Ti       5.79933     13.30078     10.65307        -0.656900      0.221576      0.475088
Ti       5.63826      5.70286      2.18311         0.766212      0.259291      2.454349
Ti       5.70614      5.61615     14.88295        -0.860161      1.505227      0.343160
Ti       5.62985      5.72064      6.53725        -0.551530     -0.401963     -0.434821
Ti       5.64994      5.71785     10.80953        -0.064510      0.669527      0.259725
Ti       5.66478      9.51877      2.19801        -0.077031     -1.333395      0.035043
Ti       5.66334      9.52116     14.92968         0.167122     -1.403397      0.877760
Ti       5.60328      9.44573      6.38192         0.067488      0.603818      1.803761
Ti       5.72540      9.54927     10.71272        -0.220498     -0.959134      0.143341
Ti       9.46401      1.91432      2.17867        -0.428708     -0.504184      0.884864
Ti       9.47255      1.93016     14.96104        -0.615342     -0.639902     -0.051542
Ti       9.62060     13.29385      2.16516        -1.505520      0.832069      0.258891
Ti       9.48384     13.32026     14.99748         0.393027     -0.426354      1.272014
Ti       9.38394      1.91263      6.55478        -0.059092      0.159941     -0.882589
Ti       9.54890     13.31932      6.46808        -0.071355     -0.327944     -0.064235
Ti       9.41244      1.85487     10.69055         0.450233      0.707459     -0.171649
Ti       9.52904     13.26062     10.67369        -0.382596     -1.325767      1.634135
Ti       9.41491      5.63174      2.26775        -0.129715      0.814432     -0.296279
Ti       9.49774      5.65549     14.95979        -0.090968      0.450724      0.774750
Ti       9.39829      5.64867      6.36033         1.052049      0.124860      1.818830
Ti       9.51987      5.61851     10.76821        -0.673696      0.611409     -0.369072
Ti       9.48559      9.38464      2.40972        -0.208238      0.784807     -0.067295
Ti       9.47376      9.52148     15.00488        -0.626223     -0.974815     -0.274468
Ti       9.46609      9.47588      6.36410        -0.215903      0.426331      1.411697
Ti       9.49446      9.42377     10.64299         0.264791      0.847737      2.215189
O       1.84777      2.01375      0.37460        -0.182663      0.005423      0.706454
O       1.80926      1.95491     13.25149         0.014550     -0.343202     -0.895216
O       1.95629     13.23864      0.33718        -0.031195      0.067241     -0.089487
O       1.83984     13.33177     13.08211         0.040145      0.349578      0.107546
O      13.30650      1.95893      0.49849        -0.076638     -0.079213     -0.196460
O      13.26211      1.98742     13.17991        -0.120178     -0.583555      0.361149
O      13.28112     13.14192      0.31223         0.139731      0.770734     -0.000210
O      13.42342     13.23215     13.14076        -0.391800      0.225325      0.876317
O       1.86335      1.83682      4.47319        -0.262887      0.210451      0.737590
O       1.82818     13.33003      4.63182         0.428493     -0.090213      1.073987
O      13.17063      1.89091      4.73584         0.133158     -0.084754      0.157800
O      13.42222     13.24231      4.63346        -0.320059      0.595704      0.932506
O       1.92063      1.88849      8.96883        -0.611639     -0.046454      0.115736
O       1.95556     13.45095      8.86999        -0.215039     -0.436886     -0.768813
O      13.43947      1.90812      8.88867        -0.562494     -0.041646     -0.282051
O      13.20720     13.30835      8.95770        -0.239140     -0.176087      0.037417
O       2.02746      5.67469      0.36674        -0.992893     -0.222002      1.271278
O       1.76876      5.61338     13.16268         0.104601      0.151612      1.065684
O      13.06195      5.61200      0.40625         0.843245      0.272348      0.796723
O      13.21854      5.71899     13.10015         0.295112      0.205756      0.196458
O       1.91822      5.71771      4.60750        -0.202459     -0.114395     -0.247638
O      13.06437      5.66798      4.58129         0.469728     -0.245378      0.108165
O       1.82209      5.66663      8.90135         0.156094      0.029633     -0.014949
O      13.22246      5.81908      8.94807         0.025945     -0.217813     -1.782571
O       1.81897      9.45294      0.40913         0.298796      0.035844      1.258092
O       1.84405      9.35504     13.18684        -0.115244      0.177712     -0.680578
O      13.32151      9.56143      0.52512        -0.396864     -0.009325      0.239786
O      13.28123      9.42186     13.19656        -0.094176      0.315899      1.369421
O       1.67994      9.40469      4.73949         0.574785      0.266161     -1.857741
O      13.35001      9.57472      4.52487        -0.341942     -0.205292      1.092521
O       1.80146      9.43550      8.96144         0.375010      0.031843      0.683491
O      13.35332      9.33102      9.04207        -0.184900      0.513504     -0.564466
O       5.61708      1.99072      0.34590         0.191741     -0.221249      0.364487
O       5.74816      1.89767     13.25675        -0.274334     -0.403806     -0.647593
O       5.77316     13.26944      0.37459        -0.096608      0.114925      0.541417
O       5.60943     13.30099     13.16066         0.278559      0.423191      0.760452
O       5.74621      1.96663      4.56249        -0.252672     -0.427775      0.381334
O       5.64770     13.37335      4.64596         0.316355     -0.307442      0.142139
O       5.54972      1.99547      8.86941        -0.100977      0.055141     -0.431260
O       5.83328     13.24008      8.91101        -0.344841     -0.003231     -0.854477
O       5.69132      5.74799      0.49644         0.232632     -0.201644     -2.753576
O       5.65462      5.78075     13.13920         0.274982     -0.414291     -1.255365
O       5.73963      5.80713      4.70583        -0.409439      0.032562      0.987419
O       5.70519      5.62585      8.98685         0.014476      0.318827     -0.093439
O       5.62115      9.46366      0.45079         0.113936      0.441213     -0.338128
O       5.72018      9.55689     13.15873        -0.265433      0.016236     -0.133536
O       5.47244      9.39991      4.64361         0.735133      0.182350     -0.630742
O       5.59795      9.48689      8.93212         0.551286      0.232942     -0.009510
O       9.46566      1.81331      0.43929         0.108350      0.234463     -1.168500
O       9.36221      1.85580     13.16167         0.457138     -0.133108     -0.150854
O       9.44909     13.34342      0.37703         0.349218      0.094792      0.719524
O       9.57665     13.21718     13.26096        -0.095340      0.096404     -1.257884
O       9.41063      2.06919      4.69473         0.109365     -0.811610      1.070948
O       9.57663     13.27253      4.66321         0.005488      0.327323      0.626379
O       9.46829      1.78086      8.90407        -0.138870     -0.019587      0.241833
O       9.65672     13.35064      8.92501        -0.139244      0.056231     -0.327493
O       9.35416      5.81374      0.43575         0.484473     -0.678631      0.264625
O       9.43570      5.66257     13.25101         0.208651     -0.339349     -2.083089
O       9.53270      5.55799      4.61978        -0.098852      0.238882     -0.344101
O       9.59252      5.57368      9.00520        -0.546585      0.751837     -0.547765
O       9.51215      9.42951      0.65113        -0.311043      0.092507     -0.971843
O       9.39001      9.58141     13.20760         0.567060      0.242985      0.662475
O       9.70163      9.66125      4.65496        -0.617354     -0.305700     -0.684786
O       9.46312      9.45015      8.89914         0.085233     -0.280053     -1.200412
O       3.77377      1.97165      2.62865         0.269637      0.294059     -0.488931
O       3.79210      2.03962     15.38320        -0.881941     -0.366909     -0.339189
O       3.84614     13.35168      2.58147         0.392557     -0.486202     -0.133467
O       3.76930     13.16076     15.27738        -0.422605      0.588490     -0.242155
O       0.00998      2.02015      2.61602        -1.455041     -0.368154     -0.040144
O      15.12836      2.06045     15.34572        -0.069059     -0.997286      0.047575
O       0.06996     13.32412      2.49541        -0.500236     -0.341697     -0.495190
O       0.01869     13.39247     15.41092        -0.016376     -0.228875     -0.495875
O       3.65567      1.92958      6.69176         0.959678     -0.089196     -0.070689
O       3.80755     13.33843      6.91228         0.108135     -0.124888     -0.927873
O      15.10819      2.00335      6.70857         0.179218     -0.098423      0.250137
O      15.12517     13.22454      6.79229         2.256428      0.332731      0.672592
O       3.65293      1.99678     11.12615         1.641320     -0.061282      0.153884
O       3.88274     13.31750     11.12036        -0.887648     -0.270614     -0.427250
O      15.16361      1.84165     11.07937        -0.908012     -0.149746      0.373419
O      15.18220     13.35013     10.89727         0.356282      0.349491      0.618720
O       3.80767      5.79943      2.58870        -0.967679     -0.806460     -0.196880
O       3.83727      5.71821     15.21469        -1.191043     -0.626737      0.313410
O      15.19529      5.70487      2.64902        -1.079143     -0.570007     -0.740574
O      15.09080      5.96158     15.33201         0.561700     -0.926146     -0.090093
O       3.74426      5.62760      6.96864         0.513577      0.177783     -0.657248
O      15.11268      5.64410      6.65312         0.145637     -0.085279      0.106255
O       3.76705      5.59095     11.16732         0.317383     -0.327910     -0.352629
O      15.18387      6.07681     10.95564        -0.599386     -0.620743      0.055155
O       3.73419      9.42888      2.67194         0.762047      0.589664     -0.225888
O       3.70312      9.61071     15.19179         1.466566     -0.225342      0.121175
O       0.01352      9.60658      2.61166         0.035390     -0.567424     -0.169785
O      15.13361      9.42211     15.45752        -0.222203     -0.293851     -0.462560
O       3.71728      9.48063      6.85975         0.413471      0.033344     -0.310844
O      15.17729      9.48532      6.93459        -0.723545     -0.118655     -0.537900
O       3.75046      9.66986     11.11719         0.972410     -0.319135      0.062469
O       0.04281      9.41465     11.09591        -0.244512     -0.339187      0.345545
O       7.57945      1.85596      2.47439        -0.090400      0.039030      0.261334
O       7.55658      1.78168     15.32810         0.827870     -0.064449      0.380160
O       7.65891     13.51329      2.66744        -0.425889     -1.008779     -0.484021
O       7.60840     13.43400     15.18131        -0.385624      0.024159      0.421322
O       7.46737      1.92381      6.92823         0.840161     -0.592156     -0.316348
O       7.63591     13.27010      6.95624        -0.532782      0.673866     -0.731335
O       7.50776      1.80607     10.99645         0.913387     -0.144311      0.093703
O       7.58983     13.41361     11.07877         1.551110      0.052436      0.027236
O       7.62793      5.69617      2.64460        -1.142244      0.545522      0.002971
O       7.59051      5.72929     15.31248         0.062413     -0.118050      0.392978
O       7.57266      5.63452      6.89525        -0.238859      0.793397     -0.134868
O       7.61060      5.87011     11.16742        -0.343662     -0.425308     -0.405895
O       7.59932      9.52632      2.78685        -0.465043     -0.115202     -0.308751
O       7.54914      9.57285     15.36970         0.779049     -0.387526     -0.038092
O       7.61954      9.38764      6.70259        -0.899402      0.321287     -0.076431
O       7.54705      9.32729     11.16636         0.815548      0.436465     -0.714587
O      11.36860      1.92047      2.57983         0.509716     -0.252733      0.214335
O      11.32045      1.95399     15.26677         0.893326     -0.013968      0.210231
O      11.49160     13.47631      2.57590        -0.155885     -0.781705     -0.347407
O      11.41732     13.26173     15.29720         0.338073      0.112801     -0.029406
O      11.30544      1.93444      6.87731         0.258144     -0.286482      0.047971
O      11.46206     13.16636      6.81532        -0.969228      0.280409      0.038539
O      11.37931      1.98483     10.99629        -0.045996     -0.181009      0.047704
O      11.40240     13.18512     11.21752        -0.368632     -0.025124     -0.255988
O      11.33057      5.75465      2.42978        -0.216585      0.069742      0.574013
O      11.39766      5.63868     15.26530        -1.009899      0.036313      0.385037
O      11.36145      5.72791      6.77383        -1.141003     -0.207961      0.105731
O      11.35758      5.63044     11.15216         0.515644     -0.223393      0.077819
O      11.41479      9.62820      2.64102        -0.703977     -0.556544      0.030921
O      11.27601      9.52454     15.53023         0.792997      0.475503     -0.495507
O      11.39084      9.51875      6.81263         0.308461      0.181115     -0.148246
O      11.37500      9.60394     11.15827        -0.337039      0.456481     -0.261569
O       1.88285      3.80513      2.70322         0.183077      0.920532     -0.603602
O       1.80878      3.77332     15.32557         0.000434      0.818445      0.145668
O       1.93369      0.03379      2.27464        -0.258628     -0.364658      0.607166
O       1.99858      0.00727     15.30485        -0.456336     -0.310906      0.002437
O      13.26983      3.78075      2.63837        -0.037646      0.418377     -0.104449
O      13.18857      3.86674     15.34054         0.688216     -0.538816     -0.138446
O      13.45757     15.17093      2.50130        -0.434176      0.098762     -0.179571
O      13.27515      0.00435     15.32950        -0.080419      0.234122     -0.032156
O       1.84986      3.77415      6.72208        -0.188159      0.127987      0.032417
O       1.79588      0.02419      6.69112        -0.120010     -0.053253      0.433587
O      13.11156      3.83186      6.88904         0.687234     -0.745680     -0.167140
O      13.28972     15.19187      6.89977        -0.162579     -0.189013     -0.175099
O       1.76551      3.80239     11.08973        -0.403735      0.071222      0.024053
O       1.89279     15.17422     10.95571        -0.014759      0.319027      0.861547
O      13.35428      3.86015     11.10936         0.197656     -0.601579     -0.462488
O      13.23279      0.02736     11.02571        -0.245100     -0.313905      0.328969
O       1.84481      7.57667      2.56003        -0.180164     -0.309557     -0.109070
O       2.00274      7.52694     15.45245        -0.578858      0.850540     -0.422464
O      13.31300      7.59710      2.64533        -0.225879     -0.429085     -0.292190
O      13.04335      7.66687     15.56990         0.841510     -0.686127     -1.250512
O       1.91611      7.51907      6.73651        -0.317333      0.715273      0.444702
O      13.26944      7.55515      6.59380        -0.164856      1.435253      0.383170
O       2.08469      7.54599     11.03654         0.131547      1.613321      0.197542
O      13.02734      7.63330     11.06019         0.766220     -0.416179      0.160822
O       2.02542     11.39874      2.55037        -0.259351     -0.195361      0.109300
O       1.77330     11.34718     15.31878        -0.181069      0.819246     -0.426753
O      13.36272     11.41496      2.62795        -0.337982      1.286401     -0.423967
O      13.20375     11.40796     15.37649         0.512986     -0.837698     -0.343520
O       1.94405     11.39650      6.82744        -0.534654     -0.140472     -0.126033
O      13.38555     11.35724      6.81213        -0.527843     -0.605294      0.006326
O       1.84404     11.49208     11.07758         0.154909     -0.975989     -0.376260
O      13.47255     11.36150     10.99231        -0.690700      0.865989      0.180143
O       5.80766      3.86112      2.57929        -0.701416     -0.867761     -0.033854
O       5.76201      3.82676     15.20047         0.343080     -1.268182      0.557577
O       5.63618      0.04725      2.45229         0.088080     -0.421916      0.202399
O       5.56583     15.19083     15.37656        -0.066898     -0.462921      0.118765
O       5.74014      3.77974      6.65149        -0.520676      0.620420      0.402527
O       5.67897      0.03003      6.64109         0.057332     -0.237373      0.524005
O       5.84237      3.77450     11.08349        -0.583629      0.359277      0.006014
O       5.62464      0.05418     10.78066        -0.291539     -0.238372      0.958130
O       5.64321      7.63761      2.46899         0.734762     -0.129107      0.796976
O       5.69227      7.61568     15.22759        -0.163212      0.737746      0.362851
O       5.64634      7.64364      6.88798         0.197473     -1.111974     -0.018234
O       5.55535      7.64943     11.00849        -0.398419     -0.347332      0.101691
O       5.83601     11.38116      2.55942        -0.707613      0.981291      0.296286
O       5.75245     11.42548     15.32022        -0.017093     -0.061346      0.098386
O       5.71552     11.37167      6.76040        -0.214949      0.002066     -0.176865
O       5.74808     11.42525     11.15641         0.170018     -0.154428     -0.310573
O       9.45218      3.80204      2.58027         0.300757     -0.284284     -0.332466
O       9.35798      3.74414     15.31374         0.264114      0.257522      0.287440
O       9.58123      0.03125      2.57806        -0.054700     -0.181110      0.384097
O       9.68401     15.19182     15.37145        -1.042834      0.416252     -0.637060
O       9.38789      3.78211      6.94653         0.517086      0.357854     -0.333550
O       9.50515      0.01240      6.71633        -0.057141     -0.416776      0.278983
O       9.39610      3.77412     10.99623        -0.178991     -1.261491      0.497417
O       9.59469     15.17543     11.13431        -0.013962     -0.148920     -0.098707
O       9.38626      7.59611      2.81764         0.820105     -0.525626     -0.124505
O       9.52169      7.54070     15.16013        -0.318175      1.417509      0.822568
O       9.48836      7.56169      6.66600         0.079608      0.052295      0.007994
O       9.58886      7.57014     11.06496        -0.153168      0.401416      0.005894
O       9.52567     11.47166      2.65289        -0.050268      0.071927     -0.448103
O       9.43167     11.41892     15.52321         0.253953     -0.199976     -0.664212
O       9.35937     11.41773      6.86312         1.036118     -0.714384     -0.176240
O       9.30462     11.32364     10.96176         0.192548      1.200123     -0.074440
