  # total energy = -7866.21310600 
CRSYTAL
PRIMVEC
    15.010000000000000    0.0000000000000000    0.0000000000000000
     0.0000000000000000   15.010000000000000    0.0000000000000000
     0.0000000000000000    0.0000000000000000    16.400000000000000
PRESSURE
19.4551 19.689 12.2206 -0.13429 -0.099919 -0.02338
PRIMCOORD
320 1
Pb       3.61162      3.72987      3.99951         0.768487     -0.849813      1.810708
Pb       3.71556      3.69249     16.37034         0.302650      0.646495      0.702229
Pb       3.80309     14.90452      4.09934        -0.194067      0.465711      0.202325
Pb       3.70540     14.97685      0.02878        -0.052721     -0.196025      0.332595
Pb       0.00830      3.75373      4.12849         0.039355     -0.084199      0.335917
Pb      14.98880      3.81066      0.04659        -0.094010     -0.470413      0.145969
Pb       0.00125     14.96636      4.06508         0.203695      0.378598      0.377194
Pb       0.01476      0.02420     16.35703        -0.033258     -0.386384      0.509457
Pb       3.79955      3.74901      8.13088        -0.174545     -0.023171      0.578091
Pb       3.74312      0.00458      8.19779         0.219404     -0.507901      0.430677
Pb      14.96912      3.68433      8.07811         0.096414      0.606180      1.680413
Pb       0.04525      0.07129      8.21150         0.010912     -0.914972      0.616205
Pb       3.72844      3.69125     12.39741         0.252762      0.321465     -0.484703
Pb       3.75160     14.97535     12.24740        -0.225278     -0.314602      0.931173
Pb      14.93378      3.76133     12.28036         0.717242      0.209381     -0.116140
Pb      14.93694     15.00129     12.30997         0.640561      0.039513      0.049146
Pb       3.84603      7.46749      4.13923        -0.604588      0.519406      0.405430
Pb       3.70272      7.54820     16.26782         1.201155     -0.437083      2.328501
Pb      14.96046      7.51006      4.08998         0.473583     -0.166089      0.316651
Pb       0.02091      7.49642     16.36532        -0.254687     -0.265318      0.526485
Pb       3.75277      7.42189      8.30159        -0.309725      1.050179      0.338463
Pb      14.96088      7.46136      8.09852         0.112736      0.529119      1.746215
Pb       3.74605      7.38974     12.37393        -0.650992      0.207312     -0.451958
Pb      14.97330      7.57607     12.31289         0.233963     -0.552537     -0.490035
Pb       3.78912     11.24733      4.01026        -0.328363     -0.115670      0.657020
Pb       3.73108     11.36929      0.05385         0.107866     -0.554444      0.309759
Pb      14.93760     11.30190      4.10337         0.714461     -0.389235      0.164297
Pb      14.97766     11.12619     16.37615         0.216897      1.063510      0.940159
Pb       3.72748     11.29785      8.19416        -0.338339     -0.257403      0.584297
Pb      14.93375     11.29085      8.15449         0.822602     -0.776328      1.082831
Pb       3.71226     11.16859     12.33589         0.136253      0.342116      0.296829
Pb      14.94635     11.19993     12.30190         0.494176      0.361366      0.225281
Pb       7.44420      3.70213      4.16084         0.138927      0.171880      0.151226
Pb       7.45000      3.66816      0.03412         0.194864      0.761644      0.582963
Pb       7.48915      0.01886      4.06738        -0.165978      0.039497      1.127001
Pb       7.62229      0.01326      0.03801        -0.292545     -0.015095      0.217644
Pb       7.48096      3.78858      8.19588         0.200905     -0.001385      0.562376
Pb       7.45629     14.85434      8.20457         0.080619      0.733414      0.568184
Pb       7.55140      3.68934     12.34655        -0.679469      0.372046      0.063832
Pb       7.44735      0.08032     12.28150         0.461392     -0.520251      0.712009
Pb       7.54311      7.47636      4.20261        -0.127518      0.031493     -0.336903
Pb       7.43965      7.47009     16.38736         0.417511     -0.063809      1.165649
Pb       7.46345      7.49729      8.07406         1.318206      0.213158      1.406372
Pb       7.42664      7.46873     12.25302         0.168222      0.391678      0.331318
Pb       7.40197     11.19195      4.09194         0.039037     -0.017370      0.771315
Pb       7.46112     11.21552     16.36808         0.104308     -0.460933      0.315342
Pb       7.43990     11.22502      8.23822        -0.022839     -0.383911      0.532942
Pb       7.45408     11.23281     12.37832        -0.031856     -0.151766     -0.058844
Pb      11.36884      3.70386      4.10397        -0.393417     -0.001932      0.513702
Pb      11.21090      3.70102      0.01257        -0.142017      0.091196      0.581760
Pb      11.16552     15.00207      4.06743         0.072888      0.048376      1.053887
Pb      11.34234      0.02773     16.34032        -0.521931      0.325064      0.787314
Pb      11.20673      3.68260      8.21654         0.158227      0.543512      0.652272
Pb      11.23330     14.98989      8.13779        -0.208326     -0.493728      0.877597
Pb      11.25963      3.73929     12.35251        -0.130848      0.351252     -0.340481
Pb      11.23698     14.86798     12.25348        -0.116101      0.724557      0.766318
Pb      11.20733      7.49380      4.04913         0.513252     -0.082310      0.471332
Pb      11.29647      7.48637     16.32473        -0.744681      0.006827      1.036696
Pb      11.34965      7.52301      8.16964        -1.185511     -0.269993      0.226599
Pb      11.19369      7.58328     12.35072         0.326561     -0.792362     -0.236187
Pb      11.15055     11.26704      4.07344         0.603128     -0.413197      0.852719
Pb      11.22089     11.36637     16.36017        -0.202453     -0.844970      0.824435
Pb      11.27591     11.25043      8.08235        -1.050307      0.158531      1.138636
Pb      11.27697     11.17647     12.33092        -0.318894      0.690565      0.202227
Ti       1.90358      1.88175      2.13011        -1.134047     -1.219938      0.623263
Ti       1.84807      1.87780     14.48357        -0.598752     -0.300385     -1.083378
Ti       1.92157     13.12722      2.16830        -0.403054     -0.139154     -0.480992
Ti       1.91597     13.11870     14.41393        -1.428429     -0.297174      0.588551
Ti      13.13625      1.85822      2.19072        -0.019397     -0.196848     -0.532384
Ti      13.12444      1.93063     14.33699        -0.273074     -1.349270      2.288931
Ti      13.07051     13.10608      2.21630         0.382279      0.047326     -0.384462
Ti      13.14162     13.14047     14.54382         0.441535      0.485556     -0.764432
Ti       1.89599      1.87999      6.24936        -0.416675     -0.387605     -1.505031
Ti       1.79729     13.08988      6.21571         0.832737     -0.350930      0.211851
Ti      13.14888      1.77362      6.30943        -1.781056      0.444840     -1.198034
Ti      13.13227     13.06582      6.30166        -1.007018      0.750328     -0.195503
Ti       1.94230      1.82398     10.30817        -0.921930      0.466580      1.387451
Ti       1.90300     13.07104     10.39823        -0.902396      0.986555     -1.283074
Ti      13.13040      1.87614     10.34316        -0.032618     -0.000832     -0.250732
Ti      13.15962     13.12877     10.39901         0.100063      0.587138     -0.344279
Ti       1.93667      5.64150      2.14990        -1.118887      0.246780      0.724994
Ti       1.86848      5.60757     14.44575         0.095986     -0.095655     -0.805960
Ti      13.19112      5.60576      2.14217        -0.716900      0.883738      0.834554
Ti      13.09586      5.61321     14.52483        -0.028530      0.091935     -1.506408
Ti       1.84504      5.67774      6.29806         0.396490     -1.352304     -0.707703
Ti      13.13120      5.58600      6.24868        -0.776630      0.027033     -0.004924
Ti       1.86815      5.55220     10.23582        -0.186777      0.989412      2.105740
Ti      13.19109      5.65163     10.24672        -1.538257     -0.203318      1.664591
Ti       1.95239      9.34105      2.18191         0.166352      0.683673      0.390993
Ti       1.87043      9.40483     14.56241         0.088066      0.113309     -1.290136
Ti      13.25471      9.36595      2.09624        -1.509450     -0.018099      0.481863
Ti      13.08403      9.42134     14.44793         0.256924     -0.886162      0.736043
Ti       1.84717      9.32685      6.25363         0.829474      0.633075     -0.150460
Ti      13.11519      9.32614      6.19553         0.110808      0.443036     -0.738885
Ti       1.87577      9.38434     10.38108        -0.016278     -1.366709     -0.053186
Ti      13.05898      9.41977     10.26374         1.454617     -0.951553      1.162419
Ti       5.59550      1.86541      2.10693         1.004586     -0.357188      0.687282
Ti       5.60465      1.82093     14.47767        -0.034611     -0.070821     -0.140218
Ti       5.75156     13.13386      2.06166        -3.156053      0.327601     -0.040560
Ti       5.64904     13.12226     14.47238        -1.044970     -0.024363     -0.667370
Ti       5.66324      1.89262      6.25058        -0.565924     -0.363922     -0.398247
Ti       5.58248     13.11618      6.25515        -0.350970      0.166125     -0.202527
Ti       5.65565      1.89804     10.32846        -1.642989      0.524495     -0.783101
Ti       5.66021     13.13654     10.45308        -0.632899     -0.616525     -1.282209
Ti       5.61999      5.62505      2.27906         0.419673      0.592518     -1.430601
Ti       5.61333      5.56128     14.50105         0.685976      0.326891     -0.855365
Ti       5.60861      5.68062      6.29402         0.071204     -1.900510     -0.839974
Ti       5.60523      5.69297     10.35936         0.135565     -1.758192      0.456570
Ti       5.69923      9.40882      2.08476        -0.662878     -2.006162     -0.133302
Ti       5.57701      9.33459     14.41316         1.099710      0.697358      0.631279
Ti       5.57438      9.34864      6.26579        -0.339499      1.074217     -0.533839
Ti       5.57517      9.40021     10.40266         0.376467     -0.203343     -0.525098
Ti       9.34224      1.87041      2.22671         0.921885      0.251194     -0.585390
Ti       9.33414      1.88244     14.52477         0.554313     -0.321145     -0.958423
Ti       9.29032     13.06650      2.16875         0.654642      0.183539      0.087383
Ti       9.34802     13.13818     14.44046         0.023141     -0.031984     -0.047578
Ti       9.36751      1.82478      6.28560        -0.153017     -0.038389     -1.217916
Ti       9.27045     13.07107      6.28485         0.818038      0.708175     -0.760643
Ti       9.36419      1.88787     10.38250         0.922333     -0.737831     -0.224175
Ti       9.33644     13.07617     10.46402         0.513144      0.524350     -1.343185
Ti       9.37152      5.59803      2.23434        -0.264660      0.663511     -0.122776
Ti       9.29430      5.62929     14.38700         0.859235     -0.185266      0.671675
Ti       9.41352      5.57001      6.26249        -0.284654      0.443295      0.983403
Ti       9.35266      5.66796     10.41136         0.518079     -0.543767     -1.463908
Ti       9.43872      9.37173      2.23303        -0.529503     -1.170804     -0.818589
Ti       9.33304      9.37361     14.45860        -0.077558     -0.604047      0.347342
Ti       9.36917      9.37746      6.19905         0.009103     -1.139099      0.887110
Ti       9.39445      9.39127     10.26875        -1.947706     -0.577432     -0.601662
O       1.71279      1.77859      0.34808         0.530487      0.479321     -0.337278
O       1.79104      1.86346     12.67257         0.210547      0.317960      0.686608
O       1.90257     13.14321      0.36012        -0.068266     -0.099298      0.558062
O       1.93680     13.13751     12.63656        -0.164869     -0.295236     -0.231999
O      13.05482      1.89792      0.37178         0.269622     -0.298347      0.810733
O      13.20088      1.89323     12.61581        -0.132370      0.287281     -1.403699
O      12.94314     13.12862      0.40764         0.244607     -0.128211      0.048480
O      13.15183     13.21450     12.75615        -0.052905     -0.637009     -0.347185
O       1.85112      1.84163      4.42089         0.054151      0.238392      0.755055
O       1.86733     13.09341      4.41750         0.074312     -0.021868     -0.128014
O      13.05061      1.79343      4.49709         0.254486      0.380369     -0.108874
O      13.05374     13.02450      4.54945         0.346497      0.237438     -1.081216
O       2.04071      1.77216      8.53389        -0.644733      0.112608     -0.810950
O       1.68196     13.20214      8.54952         0.382581     -0.267264      0.680109
O      13.02082      1.85378      8.51428         0.016269     -0.156444     -0.032868
O      13.21070     13.10510      8.60892        -0.258112      0.054876     -0.484316
O       1.87712      5.56064      0.38989         0.137006      0.375394     -0.687533
O       1.88888      5.46086     12.62635        -0.093730      0.520924      1.034048
O      13.23561      5.66311      0.37339        -0.415045     -0.234450     -1.086629
O      13.10831      5.58043     12.68826        -0.090197     -0.255339      0.665629
O       1.76729      5.60702      4.52611         0.290027     -0.097134     -0.696500
O      13.22922      5.60357      4.48295        -0.349707      0.060821     -0.613825
O       1.90789      5.62373      8.50694        -0.313561      0.041089     -1.287060
O      13.16296      5.70579      8.49832        -0.320712     -0.336461     -0.725124
O       1.84552      9.41166      0.39365        -0.008193     -0.371983     -0.733513
O       1.85564      9.41878     12.75497        -0.038279     -0.152728      0.275917
O      13.03487      9.31584      0.30430         0.759294      0.269966     -0.024171
O      13.09121      9.52992     12.67536        -0.003596     -0.651846     -0.679834
O       1.85714      9.32117      4.48301         0.198625      0.151376     -0.144879
O      13.16387      9.38661      4.41448        -0.061571     -0.152998      0.101521
O       1.96742      9.36558      8.63231        -0.195454     -0.153198     -0.835112
O      13.05197      9.34393      8.51524         0.006184      0.206190     -0.425172
O       5.60046      1.86835      0.31431         0.166642     -0.162083      0.156726
O       5.72878      1.87499     12.67546        -0.431001     -0.117093      0.280851
O       5.64780     13.11490      0.28657         0.002016      0.172793     -0.450980
O       5.59275     13.15500     12.64201        -0.068224     -0.189671      0.377071
O       5.60018      1.94086      4.44893         0.220189     -0.296443     -0.044431
O       5.62698     13.16528      4.44750        -0.113234     -0.726867      0.792204
O       5.51309      1.76873      8.47217         0.025979      0.554980      1.334701
O       5.65593     13.11323      8.55064         0.161912     -0.008187      0.710489
O       5.56524      5.65265      0.46590         0.001053     -0.458771     -0.707147
O       5.62754      5.54433     12.68893        -0.347873      0.217291      0.158246
O       5.64727      5.65591      4.50780        -0.217941     -0.255586     -0.222352
O       5.76173      5.62494      8.56343        -0.512157      0.056415     -0.460693
O       5.66688      9.40211      0.27980        -0.145321     -0.347412      0.466869
O       5.65527      9.32070     12.62314        -0.057009      0.321481      0.027693
O       5.55859      9.44890      4.47208         0.127134     -0.336851     -0.060827
O       5.48817      9.48889      8.61805         0.131758     -0.602310     -0.880507
O       9.39532      1.87208      0.38077        -0.226050     -0.053636     -0.337958
O       9.24204      1.75140     12.71551         0.226457      0.628222     -0.188174
O       9.34237     12.97132      0.38127        -0.021043      0.440908     -0.242578
O       9.34177     13.22432     12.66621        -0.036513     -0.751092     -0.017879
O       9.29630      1.84998      4.44262         0.294486      0.155170      0.123474
O       9.20973     13.06268      4.49387         0.162899     -0.046077      0.117033
O       9.46730      1.83958      8.58764        -0.041108      0.030146      0.008747
O       9.14765     13.06003      8.61133         0.710253      0.053928      0.435269
O       9.26791      5.62975      0.48834         0.349407     -0.110490     -1.013133
O       9.33659      5.67336     12.60199         0.290080     -0.245849     -0.024024
O       9.36484      5.65375      4.52160         0.102285     -0.422868     -1.373145
O       9.31592      5.55482      8.55993        -0.075615      0.218881      0.720215
O       9.22547      9.34839      0.47174         0.625448      0.097998     -1.008609
O       9.30247      9.38988     12.68348         0.127467     -0.247458     -0.399152
O       9.46606      9.23645      4.43909        -0.348487      0.682704     -0.797060
O       9.46465      9.26820      8.47452        -0.224448      0.706870      0.694474
O       3.78250      1.80438      2.41484        -0.776629      0.768299     -0.115393
O       3.69511      1.97171     14.82242         0.175462     -0.255498     -0.500522
O       3.83764     13.08185      2.42725        -0.622982     -0.028547     -0.052642
O       3.67647     13.02214     14.82909         1.291095     -0.110272     -0.272502
O      14.97383      1.84094      2.55009         0.359137     -0.631612     -0.519607
O      14.96822      1.79253     14.71349         0.432650      0.024884      0.222206
O      14.99270     13.11983      2.41169        -0.279689      0.342524      0.066543
O      14.99761     13.08163     14.87508        -0.090040      0.621828     -0.277896
O       3.66652      1.67579      6.50822         1.616692      0.026396     -0.053587
O       3.67388     13.23255      6.64869         0.562549      0.226621     -0.685270
O      14.92911      2.12419      6.48040         1.668645     -0.982627     -0.006839
O      14.95701     12.87166      6.57948         0.200363      0.583820     -0.744824
O       3.76250      1.80811     10.90374        -0.095285      0.653097     -1.438232
O       3.75411     13.03532     10.58876         0.089354      0.241728      0.239439
O      14.95096      1.76758     10.55489         1.735276     -0.442531      0.094098
O       0.02510     13.16132     10.78144        -0.665806     -0.282220     -0.165294
O       3.72546      5.49418      2.65972        -0.194636      0.243066     -0.922960
O       3.80413      5.35821     14.73951        -2.277380      1.016373      0.077668
O       0.01483      5.69355      2.47100         0.845505     -0.236743     -0.119145
O       0.00024      5.67005     14.73406         0.068993      0.199773      0.157845
O       3.70592      5.90438      6.56171         1.004764     -1.043555     -0.084950
O      14.97704      5.39950      6.55848         0.000735      0.567431      0.126689
O       3.72368      5.52635     10.52409         0.148315      0.178968      0.440217
O      14.96550      5.74130     10.56041         0.968627      0.121431      0.447765
O       3.78432      9.35889      2.54080         0.226315      0.798595     -0.500372
O       3.77866      9.46629     14.85974        -1.446314      0.052524     -0.487076
O       0.07637      9.42070      2.52317        -0.589685     -0.366545     -0.533448
O      14.94913      9.21339     14.74508         0.544919      0.305543      0.089792
O       3.73442      9.15184      6.60184        -0.510210     -0.265516     -0.136530
O      14.97731      9.45299      6.54750        -0.268076      0.095347      0.219385
O       3.72227      9.34057     10.82921        -0.097135      0.306522     -0.084106
O       0.01580      9.33201     10.63286        -1.764569      0.208680      0.256751
O       7.54030      1.78392      2.44229        -1.732681     -0.000828     -0.250931
O       7.46296      1.76842     14.84189        -0.245677     -0.274996     -0.002329
O       7.43663     13.20400      2.55366         2.211740     -0.579014     -0.221244
O       7.45930     13.20833     14.78257         0.657687     -0.086872     -0.228782
O       7.48563      2.02862      6.62003         0.516643      0.352291     -0.250042
O       7.41490     12.86032      6.62137        -0.085716      0.411023     -0.538543
O       7.43678      1.82186     10.63541         1.392413      0.018403     -0.221416
O       7.49882     13.10702     10.82991        -0.238905      0.260485     -0.375197
O       7.44216      5.72259      2.53183         0.838955     -0.222533      0.273156
O       7.48735      5.64891     14.83079        -0.708868     -0.036889     -0.259884
O       7.51060      5.41513      6.51795        -0.175216      0.245735      0.125848
O       7.42765      5.56629     10.81549         0.785861      0.346070     -0.721204
O       7.48989      9.15934      2.50698        -0.621142      0.646056      0.134443
O       7.49665      9.30083     14.84682        -1.032110     -0.034079     -0.865115
O       7.49932      9.51502      6.38695        -0.877737     -0.082596      0.687151
O       7.44328      9.20934     10.47586         0.619528      0.441087      0.590183
O      11.23977      1.86348      2.48808         0.293559      0.284151      0.043210
O      11.19966      2.01943     14.75520         0.620138     -0.486831     -0.320128
O      11.12768     13.02417      2.59065         0.820364     -0.056854     -0.742579
O      11.20252     13.01363     14.72634         0.450475      0.207963      0.075702
O      11.23456      1.50094      6.47181        -0.092593      0.971081      0.080778
O      11.18164     13.29228      6.49615         0.031248     -0.610074      0.504494
O      11.30407      1.80448     10.86124        -1.261280      1.042722     -0.791506
O      11.25767     13.07811     10.73434        -0.445239     -0.438179     -0.264374
O      11.28744      5.55441      2.58027        -0.010548      0.202635     -0.627425
O      11.21054      5.48425     14.86239        -0.134376      0.279013     -0.523749
O      11.22582      5.86093      6.57685         0.880451     -0.785323     -0.307498
O      11.23112      5.49713     10.67773         0.195530      0.286234     -0.132457
O      11.31211      9.41629      2.37197        -0.096152     -0.011923      0.288151
O      11.23481      9.29324     14.70768        -0.552157      0.480085      0.088966
O      11.22978      9.27524      6.46049         0.811133     -0.286689      0.398765
O      11.20611      9.47160     10.67565         0.416901     -0.256016      0.066021
O       1.75610      3.69426      2.47259         0.486669      1.043690     -0.276887
O       1.75071      3.80504     14.85824         0.152130     -1.599007     -0.276060
O       1.97512      0.02198      2.45594        -0.549824     -0.753493      0.079990
O       1.98330     14.92962     14.78492        -0.696873      1.767197     -0.231954
O      13.24555      3.77513      2.45863        -0.534491     -1.159942      0.024263
O      13.14528      3.68860     14.79859         0.374142      1.399470      0.010524
O      13.04488     14.94956      2.61861         0.080691      0.283669     -0.849996
O      13.08656      0.01992     14.82410        -0.264650      0.057330     -0.372883
O       1.99018      3.75997      6.57633         0.215346     -0.609137      0.014984
O       1.62760     14.92810      6.38117        -0.319521      1.417811      0.637389
O      12.88113      3.75433      6.52074        -0.144303     -0.818163      0.136396
O      13.25676     14.94726      6.59464         0.583714     -0.234689      0.060584
O       1.76046      3.71397     10.52048         0.058832     -0.652136      0.313867
O       1.88360     15.00232     10.69690         0.187744     -0.338251     -0.171464
O      13.39157      3.75154     10.51408        -1.444418      0.107283      0.236864
O      13.08165     14.97413     10.72617         0.193733      0.257323     -0.343356
O       1.99570      7.48305      2.52880        -0.436102     -0.310043     -0.496383
O       1.99982      7.51450     14.84869        -0.790941     -1.070838     -0.997251
O      13.20145      7.50157      2.43511        -0.360700      0.517956     -0.082230
O      13.05066      7.46400     14.73364        -0.012401      0.356917     -0.127588
O       1.65417      7.45507      6.65314         0.258952      1.074987     -0.506612
O      13.23933      7.48613      6.56530        -0.092237      0.079375     -0.421284
O       1.85204      7.45281     10.76623         0.427963      0.157394     -0.168674
O      12.98922      7.53276     10.77191         0.192859      0.455028     -0.518950
O       1.90780     11.26000      2.44875        -0.012643     -0.209596      0.020636
O       1.68653     11.21880     14.85441         0.705833      0.365200     -0.421183
O      13.17898     11.25218      2.57259        -0.486092     -0.214015     -0.789490
O      13.16247     11.26673     14.74577        -0.237808     -0.766663      0.255092
O       1.90776     11.19058      6.56354         0.428874      0.315236      0.058596
O      12.91071     11.20887      6.59113         0.798461     -0.060748     -0.337781
O       1.85900     11.25010     10.71529        -0.163710     -0.295650      0.024371
O      13.13838     11.26990     10.67460         0.022870     -0.756824      0.049847
O       5.74301      3.70530      2.48479        -0.504005     -0.227316     -0.239385
O       5.61115      3.71500     14.77704         0.766302     -0.960570      0.212329
O       5.60706     14.94626      2.53663         0.057547      1.467185     -0.711037
O       5.41058     14.96551     14.80667         0.431257      0.648921     -0.439025
O       5.51263      3.74781      6.53017        -0.544286      0.630825      0.303534
O       5.91091      0.05528      6.44525        -0.994590     -2.087037      0.116168
O       5.55399      3.75138     10.70645         0.268534     -0.877973     -0.536702
O       5.57383     14.95775     10.63989         0.097591      1.357585     -0.039410
O       5.40978      7.47578      2.47293         0.728146      0.572271     -0.179284
O       5.38060      7.47678     14.65202         0.716438     -0.266747      0.111245
O       5.76002      7.47175      6.58148        -0.105888      1.018340     -0.141873
O       5.46222      7.49345     10.73348         0.411148     -0.328150     -0.195351
O       5.74190     11.24554      2.25590        -0.086772      0.003340      0.807832
O       5.52313     11.24718     14.67615         0.984267      0.088666     -0.014218
O       5.31135     11.20574      6.53984         0.838652      0.810083     -0.319237
O       5.68301     11.24116     10.68147        -0.113916      0.111869      0.407516
O       9.26735      3.73750      2.38896         0.206310     -0.234711      0.635062
O       9.20608      3.75157     14.65279         0.126085     -0.182995      0.380646
O       9.34372     14.93069      2.44266         0.200263      0.232158     -0.300253
O       9.46287     14.98213     14.77502        -0.331982      0.017908      0.466831
O       9.61145      3.64920      6.55387        -0.104722      1.237730     -0.087508
O       9.15311      0.00641      6.50536        -0.413494     -1.796205      0.487191
O       9.31948      3.73826     10.62380        -0.010412     -0.603838      0.525325
O       9.39873     14.97878     10.68605        -0.302306      0.324211     -0.277029
O       9.33594      7.48615      2.57934         0.856998     -0.217036     -0.217948
O       9.36279      7.41667     14.81545         0.304598      1.299905     -0.204776
O       9.25707      7.47676      6.56780        -0.361631      0.072053     -0.233700
O       9.27074      7.51732     10.67902         1.023022     -0.071612      0.000238
O       9.17733     11.17765      2.56928         0.231006      1.025315     -0.253629
O       9.27356     11.20826     14.76572         0.240689      0.680118     -0.246856
O       9.43951     11.20803      6.57007         0.334360      0.624712     -0.025173
O       9.22420     11.21392     10.73393         0.318229     -0.234330     -0.098663
