  # total energy = -7880.75599455 
CRSYTAL
PRIMVEC
    15.6000000000000000    0.0000000000000000    0.0000000000000000
     0.0000000000000000   15.6000000000000000    0.0000000000000000
     0.0000000000000000    0.0000000000000000    17.640000000000000
PRESSURE
-2.99133 -3.24228 1.8917 0.001103 0.013869 -0.030283
PRIMCOORD
320 1
Pb       3.96124      3.88966      4.31847        -0.042953      0.082267      0.115585
Pb       3.94788      3.86992     17.56392         0.047296     -0.045166      0.190677
Pb       3.79876     15.51124      4.36433         0.468046     -0.002080      0.572216
Pb       3.86549      0.03986     17.63912         0.157486     -0.409192     -0.751100
Pb      15.51678      3.84949      4.31175         0.147925     -0.149289     -0.245287
Pb       0.04784      3.83382     17.51983        -0.455923      0.100706      0.190870
Pb       0.01580     15.59252      4.33039        -0.368958     -0.073690      0.073689
Pb      15.56522     15.57123      0.01391        -0.288961      0.111554     -0.256259
Pb       3.84966      3.92476      8.72202         0.573624     -0.001724      0.341602
Pb       3.88445      0.01337      8.78152         0.170298     -0.308524     -0.396893
Pb       0.00898      3.89435      8.81904        -0.402565      0.366180      0.028707
Pb      15.52908      0.09040      8.72232         0.572079     -0.669366      0.172039
Pb       3.90242      3.92139     13.17388        -0.274345     -0.609637      0.287518
Pb       3.96445      0.07240     13.16628        -0.323842      0.010484      0.077889
Pb       0.03723      3.93703     13.18917        -0.582006     -0.024440     -0.162568
Pb      15.51532     15.53743     13.20588         0.071542      0.087804      0.045074
Pb       3.94923      7.75441      4.30301        -0.317161     -0.015047      0.311656
Pb       3.93388      7.73844     17.52893         0.462444      0.114691      0.576321
Pb      15.57912      7.58139      4.30915         0.366640      0.802760      0.236162
Pb       0.02019      7.74473     17.52268        -0.250502      0.071775      0.356281
Pb       3.80772      7.73690      8.73482         0.177478      0.247689      0.077406
Pb       0.00451      7.83805      8.71152        -0.095529     -0.133053     -0.188817
Pb       3.92444      7.78184     13.15765        -0.301428      0.607665      0.655039
Pb       0.00574      7.73693     13.14134         0.084176      0.170435      0.226808
Pb       3.89952     11.61713      4.30348        -0.078577      0.271076      0.259480
Pb       3.83369     11.65466     17.54891         0.136912      0.502369     -0.103142
Pb       0.06692     11.76369      4.36247        -0.099469     -0.307158      0.155833
Pb       0.03283     11.67473     17.55918        -0.448051     -0.528927     -0.019692
Pb       3.85012     11.77859      8.83599         0.186618      0.108655     -0.538016
Pb       0.00146     11.62443      8.70978        -0.351371      0.143779      0.052410
Pb       3.89911     11.64121     13.17105         0.045586     -0.354835      0.020765
Pb      15.58892     11.75644     13.18538        -0.431485     -0.117969      0.074571
Pb       7.73890      3.82244      4.27405        -0.208915     -0.402763      0.351858
Pb       7.82734      3.89918     17.62077        -0.085886      0.189789      0.229180
Pb       7.72624     15.55562      4.37868         0.482008     -0.035493      0.182405
Pb       7.75168     15.59080     17.54885        -0.236247     -0.183553     -0.031048
Pb       7.75067      3.91035      8.78423         0.204889     -0.204212     -0.224010
Pb       7.72009      0.07748      8.75261         0.237113     -0.691935      0.071212
Pb       7.69006      3.85773     13.24456         0.361555     -0.119518     -0.050875
Pb       7.80535      0.05817     13.09695        -0.093639     -0.543417      0.032703
Pb       7.75384      7.67030      4.30800         0.026497      0.797896      0.062364
Pb       7.77994      7.71564     17.49096        -0.263836      0.443552      0.544757
Pb       7.76463      7.81537      8.78519        -0.111563      0.323615     -0.369726
Pb       7.85244      7.68840     13.20524        -0.374038      0.727642      0.654635
Pb       7.71643     11.54311      4.27122         0.310102      0.231504      0.478353
Pb       7.79701     11.62689     17.42942         0.087312     -0.093715      0.359212
Pb       7.76477     11.68421      8.61909         0.177078      0.370503      0.087808
Pb       7.73265     11.69800     13.12510         0.255985      0.066359      0.119152
Pb      11.75723      3.80545      4.23575        -0.463371     -0.107040      0.201763
Pb      11.57726      3.82576     17.57784         0.487111     -0.076720     -0.236311
Pb      11.73165     15.59592      4.27498        -0.416496     -0.122758      0.224573
Pb      11.75393      0.00550     17.59500        -0.140734      0.066211      0.267486
Pb      11.70757      3.87592      8.72179        -0.229663      0.420552      0.035491
Pb      11.58573      0.02774      8.75076         0.223449     -0.300504      0.015911
Pb      11.67643      3.84446     13.14273         0.344603      0.041233      0.234906
Pb      11.64629      0.06630     13.19097         0.249979      0.085736     -0.274063
Pb      11.62297      7.80260      4.38910        -0.102597      0.028459     -0.440050
Pb      11.71603      7.79631     17.61798        -0.047830     -0.069271     -0.214619
Pb      11.72261      7.80734      8.75239         0.122651     -0.105318      0.112916
Pb      11.65744      7.82920     13.10126         0.126055     -0.060786      0.254832
Pb      11.66991     11.55328      4.41784         0.061227      0.235134      0.233360
Pb      11.57945     11.74437      0.01145         0.013540     -0.243623     -0.114481
Pb      11.57984     11.78316      8.90577         0.305335     -0.373867     -0.642349
Pb      11.68337     11.69485     13.30341         0.178108      0.037624     -0.329573
Ti       1.94198      1.90014      2.32021        -0.480348      0.695592      1.357001
Ti       1.93924      1.96245     15.61489         0.030659     -1.004581      2.731376
Ti       1.95389     13.64940      2.41811         0.529834     -0.749563      1.146474
Ti       1.81000     13.71135     15.60892         0.840717     -0.188279      1.551193
Ti      13.64558      1.92315      2.37978        -0.409170     -1.509379      0.328840
Ti      13.58851      1.89168     15.57309         0.390389      0.741057      1.909124
Ti      13.62562     13.56185      2.43563        -0.216553      0.356931     -0.073939
Ti      13.53362     13.54938     15.74976         0.357743     -0.119485     -0.449479
Ti       1.95072      1.99312      6.86967         0.772081     -1.067193     -0.576971
Ti       1.96124     13.61865      6.80878        -0.085172      0.211801     -0.354912
Ti      13.69514      1.98774      6.82772        -0.342736     -0.287954      0.981580
Ti      13.70830     13.65446      6.75395        -0.233665     -1.018243      0.729698
Ti       1.88380      1.96853     11.27953         0.954919     -0.815764      0.136402
Ti       1.98435     13.67138     11.26008        -1.375353      0.493317     -0.654752
Ti      13.69227      1.92887     11.16456        -0.592525      0.353193      0.481417
Ti      13.63034     13.59596     11.18279         0.033724      0.215844      2.910574
Ti       1.92803      5.77310      2.40002        -0.036062      0.622714      0.008652
Ti       1.95860      5.87223     15.65859        -0.217532     -0.527380     -0.313905
Ti      13.58066      5.92838      2.35957        -0.073203     -0.805793      1.676669
Ti      13.59977      5.78926     15.61115        -0.406046     -0.604767      0.640638
Ti       1.91975      5.78930      6.74944         0.230655      1.973305      0.118543
Ti      13.62291      5.87159      6.72548        -0.234359     -0.127459      1.473183
Ti       1.96352      5.87364     11.25075        -1.106595     -0.182877     -0.360801
Ti      13.56530      5.88570     11.20121         0.442947     -1.389401     -0.485397
Ti       1.89989      9.72035      2.35176        -0.182406     -0.187059     -0.065814
Ti       2.00565      9.73133     15.67512        -0.635717     -0.057428     -0.256998
Ti      13.68543      9.71965      2.32306        -0.339853     -0.025970      0.032507
Ti      13.60665      9.61596     15.57406         0.611946      0.753885      1.381774
Ti       1.95500      9.75007      6.70533        -0.343667     -0.581928      1.723927
Ti      13.54919      9.77240      6.77229         0.350122      0.611151      3.311298
Ti       1.92950      9.78864     11.19180        -0.092189     -0.093227      2.890493
Ti      13.66416      9.70469     11.28934        -0.508718      0.688300      0.453517
Ti       5.73281      1.88550      2.41713         1.782092      0.526510     -0.084536
Ti       5.90797      1.96338     15.65322        -0.807032     -0.901473      0.301573
Ti       5.86733     13.68842      2.43776         0.042835     -0.380031      1.985794
Ti       5.77789     13.65627     15.52934        -0.205403      0.634998     -0.585450
Ti       5.87642      1.93276      6.83334        -0.201326      0.402078     -0.482923
Ti       5.84871     13.67234      6.71449         0.325769     -0.125689      1.856815
Ti       5.83470      1.95945     11.17942        -1.058064     -0.283924      0.012060
Ti       5.87868     13.61283     11.22212         0.401869      0.875549     -1.785964
Ti       5.84497      5.87452      2.43686        -0.323577     -0.486250     -1.252011
Ti       5.87192      5.76953     15.58298         0.140072      0.942583      0.014055
Ti       5.85979      5.87713      6.92434        -0.480122     -0.573268     -1.505321
Ti       5.80654      5.82941     11.35863         0.006860     -0.181958     -0.891291
Ti       5.81659      9.78980      2.28493         0.883362     -1.199514     -0.166968
Ti       5.84726      9.74338     15.67101         0.432838     -0.395325     -0.774129
Ti       5.81151      9.78814      6.80608         0.135146     -0.307802      0.450229
Ti       5.85390      9.66600     11.22934        -0.174692      0.914555      0.582174
Ti       9.64130      1.87196      2.34528         0.942332     -0.782043      0.840562
Ti       9.69234      1.91233     15.65945         1.057700      0.204320     -0.239767
Ti       9.80537     13.54499      2.52617        -0.492745      0.876826      1.184477
Ti       9.66871     13.67908     15.59044         0.140042     -0.575723      0.688002
Ti       9.75916      1.92503      6.86604        -0.757921      0.081156      1.098299
Ti       9.80925     13.60236      6.77993        -0.981443     -0.008606      1.405976
Ti       9.67402      2.04716     11.23031         0.888936     -0.441658     -0.443593
Ti       9.84511     13.61697     11.33518        -1.303451      0.231425     -0.227505
Ti       9.67455      5.74026      2.48080         0.426359      0.703864      0.043048
Ti       9.74385      5.82113     15.64948         0.038062      0.109336      1.823041
Ti       9.74497      5.83688      6.74938        -0.013724     -0.631840      1.250128
Ti       9.69038      5.91344     11.24450         0.976006     -1.377530     -0.520319
Ti       9.81332      9.71971      2.39948        -1.034299     -0.188959      0.611809
Ti       9.81008      9.67345     15.56015        -0.773039      0.700965      2.196182
Ti       9.78126      9.65616      6.81198        -0.565023      1.797655     -0.006267
Ti       9.65326      9.74122     11.22163         1.057731      0.690926      0.243312
O       1.88518      1.96438      0.63105         0.171920     -0.240338     -1.289345
O       1.99161      1.84916     13.96606        -0.019045      0.122484     -2.960105
O       1.95392     13.60898      0.73273        -0.064773     -0.074192     -1.682648
O       1.64682     13.90376     13.92885         0.373784     -0.750332     -1.230214
O      13.64673      1.79904      0.68251        -0.118771      0.144184     -1.399503
O      13.48881      1.99016     13.89737         0.177684     -0.193813     -1.984656
O      13.54057     13.68342      0.69311         0.171183     -0.111627     -0.585982
O      13.50158     13.52243     14.02102         0.301128      0.175965     -0.394664
O       1.97629      2.03318      5.16720        -0.088872      0.295818     -1.383010
O       2.04791     13.37820      5.07252        -0.332919      0.607285     -0.388424
O      13.73822      1.96460      5.12595        -0.078994     -0.122061     -1.406828
O      13.76541     13.51395      5.02523        -0.129431      0.308707     -0.610130
O       1.91693      1.95353      9.54931        -0.181085      0.078835     -1.323881
O       1.97279     13.65833      9.47064         0.243373     -0.164178      0.320124
O      13.76905      1.90299      9.38388        -0.083576      0.176720      0.530900
O      13.63521     13.55480      9.51592        -0.027684      0.124517     -1.827382
O       1.83895      5.86446      0.67263         0.394621     -0.285838     -0.600988
O       1.83218      5.88432     13.90657         0.487059     -0.077041     -0.056576
O      13.71986      5.95353      0.69471        -0.378592     -0.100314     -2.306513
O      13.49524      5.77206     13.90386         0.547349     -0.016773     -0.781749
O       2.03677      5.92654      5.01961        -0.488847     -0.537164     -0.506924
O      13.56701      5.71069      5.03676         0.075496      0.095166     -1.850217
O       1.92642      5.81138      9.50979         0.144010      0.119368     -0.127602
O      13.61462      5.81414      9.44655        -0.096772      0.229079     -0.206580
O       1.97815      9.85537      0.59689         0.109029     -0.379894      0.024417
O       2.14259      9.53689     13.97061        -0.274118      0.475619     -0.705627
O      13.59378      9.60267      0.61454        -0.074142     -0.197527     -1.200939
O      13.59649      9.63812     13.88083        -0.057167      0.112051     -2.001759
O       1.76471      9.64458      5.02846         0.288880      0.202763     -1.781737
O      13.51078      9.87665      5.13078         0.161802     -0.249304     -3.166926
O       1.88163      9.95236      9.54834         0.291613     -0.260572     -2.770621
O      13.66403      9.72482      9.59642         0.030414     -0.070009     -1.363310
O       5.84640      1.81570      0.69821         0.108371     -0.146273     -1.384402
O       5.87530      1.99814     13.93839         0.034746      0.119440     -1.308214
O       5.87019     13.79553      0.77193         0.031551      0.041201     -2.274866
O       5.84836     13.75420     13.74984        -0.234389     -0.518506      0.275030
O       5.81000      1.94811      5.08232         0.055915      0.175000     -0.698871
O       5.81495     13.63533      5.01714        -0.088816      0.181527     -1.533880
O       5.86965      2.09940      9.45161        -0.147143     -0.248136     -0.789224
O       5.75966     13.73679      9.39877        -0.216627     -0.403172      1.485304
O       5.84795      5.84746      0.70725         0.076685      0.132603     -0.868620
O       5.84514      5.80977     13.81518        -0.007824     -0.360034     -0.534218
O       5.83173      5.83486      5.14806         0.133715      0.173827     -0.273280
O       5.69858      5.69823      9.62538         0.355692      0.315109     -0.315047
O       5.85730      9.66128      0.53021        -0.171033      0.334172     -0.301759
O       5.76595      9.83196     13.92679        -0.083576     -0.071067     -0.605937
O       5.95243      9.69134      5.11325        -0.375592     -0.136386     -1.238034
O       5.81884      9.71251      9.54167         0.179613     -0.043930     -1.926541
O       9.77691      1.92846      0.63075        -0.429628      0.076162     -1.374999
O       9.73329      2.03300     13.93951        -0.139232     -0.329010     -1.326474
O       9.85106     13.48457      0.84789        -0.248063     -0.177426     -2.597843
O       9.70215     13.56824     13.89436         0.287685      0.268433     -1.595221
O       9.78174      1.81030      5.19917        -0.139371      0.087333     -2.407948
O       9.83768     13.66690      5.09682        -0.012003      0.086962     -1.509621
O       9.60044      2.02618      9.47320         0.345717      0.175126      0.422460
O       9.83336     13.54660      9.61050         0.177826     -0.054128     -0.875840
O       9.57192      5.79036      0.77600         0.204178     -0.130388     -1.591122
O       9.69442      5.94349     13.99519        -0.012968     -0.028734     -2.916216
O       9.68994      5.87165      5.03453        -0.000003     -0.068363     -0.886922
O       9.81266      5.81069      9.52980        -0.393456      0.241286     -0.772429
O       9.73818      9.95655      0.70615         0.160409     -0.425361     -1.233019
O       9.72256      9.65611     13.89870         0.145272     -0.070624     -2.923851
O      10.03154      9.68631      5.09239        -0.539694     -0.247521     -1.403669
O       9.67445      9.93330      9.50551        -0.293207     -0.400470     -0.829044
O       3.92262      2.00795      2.64905        -1.972611     -0.374843      0.682555
O       3.92825      1.83282     16.05623        -0.255989      0.562969      0.328759
O       3.88554     13.63186      2.91092         0.184983     -0.231751     -0.219407
O       3.84707     13.73166     16.00059         0.417165     -0.057703     -0.069427
O      15.57022      1.78463      2.72832         0.751693      0.565139      0.521784
O       0.00170      2.03646     16.00284        -0.356819     -0.582812     -0.008754
O       0.09563     13.64886      2.88801        -0.739696     -0.156040     -0.139094
O      15.51245     13.56833     16.20515         0.337043      0.239154     -0.344697
O       3.94119      1.98690      7.19627        -0.739513      0.112588      0.658974
O       3.88546     13.66396      7.14131        -0.230082     -0.043066      0.744839
O       0.05157      1.98792      7.22479        -0.595891      0.093414      0.455094
O       0.01476     13.63786      7.15561        -0.018314     -0.189323      0.256245
O       3.87399      1.87932     11.64520         0.158648      0.183858      0.157684
O       3.76638     13.64842     11.65483         1.635232     -0.136051      0.197366
O      15.58925      1.96734     11.69866        -0.406418     -0.038153     -0.147431
O      15.51983     13.61382     11.76430         0.049598      0.087686     -0.437988
O       3.89450      5.87910      2.77648        -0.200589     -0.511098      0.255479
O       4.01822      5.88993     16.10660        -1.476320     -0.991830     -0.318201
O      15.48966      5.85571      2.76654         0.639821     -0.743890      0.609242
O       0.06696      5.80105     16.01737        -0.743880     -0.165614      0.068808
O       3.84513      5.83653      7.19095         0.093626     -0.085189      0.538520
O      15.50717      5.97818      7.05102         1.056012     -0.274254      0.418764
O       3.83460      5.84036     11.75500         0.351357      0.198244     -0.184819
O      15.56540      5.68800     11.58983         0.519916      0.750425      0.497177
O       3.93675      9.59059      2.78643        -0.568758      0.474383     -0.185393
O       3.95221      9.74154     16.04747        -0.696742     -0.328377      0.578197
O      15.57011      9.74040      2.57872         1.100689     -0.572068      0.680347
O       0.03285      9.66665     15.93911        -0.144901      0.116634      0.349650
O       3.89206      9.68718      7.05608        -0.143653      0.532310      0.509814
O      15.58913      9.62968      7.26377        -0.478238      0.700202     -0.176647
O       3.91192      9.78376     11.60764        -0.426879      0.029839      0.346888
O       0.00059      9.75509     11.57033        -0.370583     -0.061751      0.765290
O       7.78126      1.79822      2.77359        -0.156323      0.374479      0.282787
O       7.84406      2.02051     15.97307        -1.098235     -0.452756      0.811525
O       7.79739     13.63590      2.95649        -0.295074     -0.294123     -0.401073
O       7.77869     13.66743     15.88586        -0.697367     -0.189558      0.800331
O       7.77439      1.95053      7.21337        -0.167464      0.110624      0.414666
O       7.73868     13.70056      7.18325         0.554978     -0.060279      0.125381
O       7.70869      1.98006     11.59549         0.952301      0.319739      0.497474
O       7.84153     13.70446     11.57381        -0.920922     -0.227542      0.460367
O       7.75010      5.69365      2.78756         0.187710      0.463874      0.900715
O       7.75376      5.90264     16.00869         0.569231     -0.943253      0.269470
O       7.78755      5.98913      7.26672         0.623094     -0.170751      0.096805
O       7.76715      5.91151     11.71621        -0.408351     -0.812888     -0.347377
O       7.76696      9.75862      2.73173         0.186573     -0.093210      0.368251
O       7.77677      9.72450     15.90945        -0.349688      0.241614      0.677947
O       7.79084      9.62567      7.09056        -0.245878     -0.003377      0.981273
O       7.77266      9.70130     11.68042        -0.347059     -0.014487      0.147927
O      11.65375      1.79849      2.73942         0.228284      0.614583      0.462617
O      11.65817      1.95486     16.04308        -0.047064     -0.398650      0.391887
O      11.74250     13.58949      2.87035         0.314873     -0.238125      0.240384
O      11.63135     13.60719     16.07143        -0.280536      0.170138      0.347458
O      11.65684      1.92135      7.21344         1.400909      0.140128      0.441855
O      11.68168     13.64409      7.21199         0.244619      0.248619      0.295470
O      11.64225      1.99185     11.61226         0.510770     -0.232502     -0.202308
O      11.68654     13.69883     11.71914         0.421691     -0.500286      0.161642
O      11.60248      5.76321      2.76148         0.811224     -0.105910      0.268016
O      11.64524      5.83001     16.05047         0.044542      0.035333      0.486674
O      11.67758      5.80937      7.17718        -0.367137     -0.067074      0.194494
O      11.69247      5.77588     11.57637        -0.161705      0.639533      0.391255
O      11.71347      9.65074      2.71185         0.156011      0.201777      0.614032
O      11.70920      9.56973     15.92246        -0.234234      0.447757      0.459648
O      11.59335      9.94103      7.19774         1.566602     -0.628969      0.937229
O      11.60653      9.65084     11.45158         0.517885     -0.025088      1.095113
O       1.84567      3.86044      2.74933         0.254346     -0.310852      0.374963
O       1.99083      3.81700     16.04862         0.398829      1.400616      0.065319
O       1.98866     15.58977      2.82315         0.071942      0.239975     -0.085076
O       1.85127     15.52322     16.16557        -0.018083      0.919089      0.091542
O      13.60209      3.74234      2.73466         0.223676      1.617538      0.470738
O      13.52624      3.82509     16.05077         0.512314      0.843064      0.329272
O      13.65388     15.50871      2.83881         0.264192      0.053934      0.422265
O      13.65132     15.59822     16.04819        -0.094329     -0.369112      0.160308
O       1.92639      4.00915      7.20958        -0.415836     -1.319697      0.325628
O       1.90156      0.01447      6.99985         0.299196     -0.113538      0.916220
O      13.69582      3.87989      7.15148        -0.171927      0.074598      0.525243
O      13.73654     15.53100      7.29326        -0.619940      0.859804     -0.509035
O       2.06329      3.85085     11.61897        -0.638802      0.705078      0.519189
O       1.87503     15.59840     11.72589        -0.065501     -0.138939     -0.249002
O      13.68692      3.85603     11.59139        -0.363782     -0.360252      0.087139
O      13.58876     15.58004     11.70133         0.124814      0.491225     -0.509140
O       1.91670      7.67054      2.84816        -0.234886      1.197361     -0.140355
O       1.95084      7.73185     16.11850         0.499570      0.239140     -0.091157
O      13.61110      7.75392      2.80632        -0.142261      0.357954      0.406849
O      13.58747      7.68231     15.95040         0.452836      0.355313      0.599329
O       2.00564      7.85734      7.28654        -0.601182     -0.858849     -0.009678
O      13.52451      7.82211      7.09306        -0.264947     -0.028639      0.384602
O       1.81703      7.81929     11.65720         0.799071     -0.558831     -0.397647
O      13.60506      7.75325     11.66476         0.388734      0.054632      0.013971
O       1.97514     11.62617      2.84529         0.114427     -0.308376     -0.208156
O       2.01915     11.70743     15.96238        -0.364108     -0.198424      0.132024
O      13.73172     11.61953      2.60410        -0.274885      0.656169      0.683864
O      13.59125     11.60284     16.05318         0.032624     -0.016584      0.223175
O       1.87487     11.64167      7.19219         0.442164      0.330700      0.337822
O      13.58719     11.70353      7.25987         0.604404      0.177763      0.079586
O       1.86876     11.69936     11.70428         0.392281      0.222388      0.292697
O      13.54223     11.68948     11.74843         0.184970     -0.278436     -0.116916
O       5.81918      3.86589      2.60366         0.136231     -0.271207      1.387285
O       5.90190      3.85903     16.10752        -0.335195      0.412664      0.009618
O       5.79192     15.57933      2.90569        -0.159849     -0.014997      0.106386
O       5.86509      0.03784     15.92546         0.420184     -0.667942      0.774619
O       5.90446      3.92769      7.17717        -0.164069      0.113366      0.688422
O       5.87067      0.01060      7.19804        -0.531892      0.260682      0.168412
O       5.73818      3.84153     11.71498         0.481293      0.858026      0.210062
O       5.83008      0.01909     11.50783        -0.016949     -0.065783      0.543487
O       5.96434      7.76585      2.76999        -0.397320      0.198118      0.354487
O       5.86897      7.67185     15.92732        -0.198139      1.274928      0.421682
O       5.73239      7.73054      7.39045         0.522121      0.655719      0.047833
O       5.78356      7.81014     11.62090         0.170619     -0.974656      0.256019
O       5.83499     11.62281      2.74310        -0.318231      0.778329      0.054822
O       5.73322     11.75839     15.99059         0.464370     -0.093922      0.066827
O       5.85107     11.73470      7.07267        -0.180937     -0.766473      0.608768
O       5.88631     11.74063     11.43796        -0.338169     -0.187933      0.948003
O       9.67031      3.78532      2.79216         0.225586     -0.027926      0.377063
O       9.69127      3.87207     16.00700         0.148871      0.662262      0.670396
O       9.79136     15.49649      2.74327        -0.247380      0.637273      0.526913
O       9.65780     15.58602     16.01081         0.345678     -0.203811      0.187100
O       9.66708      3.89593      7.19098         0.202565      0.946090      0.132123
O       9.68816      0.03945      7.37146         0.264874     -0.951784     -0.028997
O       9.80577      3.96194     11.69378        -1.230274     -0.579231     -0.014545
O       9.76071      0.04329     11.62146        -0.189739      0.225100      0.379221
O       9.71095      7.76576      2.78066        -0.013105     -0.200211      0.387588
O       9.66789      7.83791     16.04724         0.326818     -1.020939      0.435411
O       9.88781      7.87146      7.25748        -0.437454     -2.019577      0.210397
O       9.69575      7.76422     11.59136        -0.059536      0.445509      0.354497
O       9.81210     11.63014      2.93400        -0.244804     -0.221856      0.249040
O       9.64760     11.65354     16.01811         0.817487      0.312529      0.043846
O       9.62752     11.67949      7.12647         0.112781      0.678081      0.483856
O       9.72636     11.63937     11.76764         0.101225      0.404279      0.016227
