  # total energy = -7880.31705906 
CRSYTAL
PRIMVEC
    15.2000000000000000    0.0000000000000000    0.0000000000000000
     0.0000000000000000   15.2000000000000000    0.0000000000000000
     0.0000000000000000    0.0000000000000000    17.000000000000000
PRESSURE
7.57927 7.73381 2.90345 -0.141607 -0.000742 -0.033094
PRIMCOORD
320 1
Pb       3.73374      3.86350      4.22171         0.122447     -0.685530      0.324283
Pb       3.75061      3.83400      0.08405         0.408114     -0.187733     -0.215673
Pb       3.69609      0.03246      4.33007         0.299954      0.077857      0.268459
Pb       3.87369     15.19813      0.02734        -0.157197      0.200047     -0.079899
Pb      15.08723      3.90402      4.18792         0.262402     -0.892230      0.270741
Pb      15.17303      3.67772     16.98437         0.261838      0.432456     -0.089693
Pb       0.01269      0.08856      4.20370        -0.278489      0.002374      0.846677
Pb       0.03490      0.00459     16.87659         0.029716     -0.248714      0.612987
Pb       3.78928      3.67982      8.48820        -0.039726      0.320999     -0.066320
Pb       3.75017     15.13849      8.49003        -0.112926      0.164094     -0.107987
Pb      15.10309      3.81710      8.44828         0.477638     -0.575777      0.847487
Pb       0.01447     15.13002      8.66839        -0.192776      0.334946     -0.412186
Pb       3.77704      3.84992     12.77794         0.121505     -0.694481      0.022272
Pb       3.81841     15.10650     12.66211         0.109695      0.246093      0.096230
Pb       0.06076      3.55764     12.77137        -0.527510      1.053676     -0.104275
Pb       0.03439     15.15247     12.69737        -0.419207     -0.303920      0.117473
Pb       3.63146      7.68803      4.25958         0.646277      0.035141     -0.048096
Pb       3.93206      7.58688      0.07001        -0.735168     -0.498197      0.193204
Pb      15.18325      7.64608      4.16949        -0.266899      0.540294      0.540380
Pb       0.18530      7.66293     16.96424        -0.750198     -0.234151     -0.331861
Pb       3.69937      7.56534      8.46179         0.532171      0.124863      0.060853
Pb      15.12659      7.53349      8.51403         0.002902      0.462723      0.085984
Pb       3.85553      7.59714     12.67424         0.044313     -0.092434      0.439229
Pb      15.15064      7.50151     12.67183        -0.277991      0.115923      0.220979
Pb       3.64669     11.45613      4.25346         0.574837     -0.055292      0.489705
Pb       3.84389     11.36837      0.09620         0.008695      0.402928     -0.487119
Pb      15.12790     11.45174      4.19904        -0.239756     -0.212854      0.622463
Pb       0.08415     11.42103     16.98041        -0.127847     -0.021336     -0.086775
Pb       3.78764     11.33830      8.44674        -0.123394      0.090095     -0.178333
Pb      15.02927     11.35919      8.50797         0.683794     -0.034213      0.091523
Pb       3.80559     11.30694     12.73875        -0.183356      0.371005     -0.213295
Pb       0.02141     11.33167     12.64089        -0.046030     -0.039466     -0.127962
Pb       7.58882      3.75066      4.11280         0.185779      0.280489      1.171741
Pb       7.56425      3.77064     16.94606        -0.272337      0.023221      0.251742
Pb       7.60719      0.09091      4.21633        -0.003090     -0.259245     -0.019879
Pb       7.57548     15.19670      0.01974         0.179424      0.246378      0.005584
Pb       7.63814      3.91146      8.33842        -0.653874     -0.866068      0.884861
Pb       7.56076     15.12348      8.33177         0.057001      0.218208      1.003847
Pb       7.49266      3.75689     12.70227         0.682207     -0.086412      0.215696
Pb       7.65119      0.09024     12.68117        -0.336977     -0.328612      0.469926
Pb       7.57187      7.68729      4.41882         0.241562     -0.459677     -0.867456
Pb       7.43284      7.59031     16.93398         0.638006     -0.431329      0.627293
Pb       7.62811      7.55786      8.46523        -0.220987      0.378634      0.427250
Pb       7.66103      7.49497     12.77739        -0.588738      0.163905     -0.391028
Pb       7.62087     11.40731      4.17095        -0.301728      0.082723      0.127622
Pb       7.69977     11.35803     16.99540        -0.315045     -0.019535      0.114763
Pb       7.51300     11.39325      8.34197         0.477062      0.103743      1.192903
Pb       7.49390     11.21903     12.71031         0.346253      0.389475      0.083602
Pb      11.45535      3.61690      4.18188         0.130719      0.565899      0.536985
Pb      11.44916      3.78239      0.00924        -0.102519      0.381709     -0.120205
Pb      11.38362      0.02420      4.20258        -0.068000      0.191801      0.048056
Pb      11.40979     15.12214     16.88641        -0.513042      0.047301      0.793218
Pb      11.30427      3.78708      8.46760         0.525847     -0.034354     -0.184612
Pb      11.28377     15.14599      8.47213         0.213085      0.509574      0.638312
Pb      11.42678      3.81066     12.78828         0.035199     -0.089475     -0.103157
Pb      11.37669     15.11593     12.84845        -0.106106      0.393148     -0.382446
Pb      11.39805      7.71573      4.20217         0.092359     -0.089533      0.613500
Pb      11.28687      7.51495     16.98964         0.636207      0.239701     -0.361998
Pb      11.31483      7.54952      8.35876         0.058327      0.055555      0.463354
Pb      11.27729      7.41223     12.68189         0.385622      0.569908      0.253284
Pb      11.43625     11.47056      4.16082        -0.013511     -0.583122      0.524088
Pb      11.32029     11.39335      0.08116         0.290843     -0.160571     -0.557007
Pb      11.32244     11.42991      8.52467        -0.336014     -0.198614     -0.227252
Pb      11.45617     11.38656     12.93934        -0.452104     -0.218146     -1.047768
Ti       1.91622      1.84761      2.22576        -0.315752      0.447738      1.148974
Ti       1.91313      1.87074     14.93888         0.891639      0.121502     -0.848091
Ti       1.82377     13.32349      2.32460        -0.099212      1.101293     -0.578517
Ti       1.92290     13.32799     15.02635         0.640154     -1.047471     -0.362639
Ti      13.31735      1.84563      2.10734         0.363095      0.577622      0.533797
Ti      13.26857      1.84986     14.97315         0.701668      0.778668     -0.454670
Ti      13.23777     13.34868      2.24446         0.574516      0.072177     -0.257525
Ti      13.24731     13.26240     15.04262         0.363976     -0.368327      0.354288
Ti       1.89441      1.88569      6.57939         0.090453      0.259732      0.273603
Ti       1.77369     13.27005      6.52585         0.786388      0.631860     -0.426484
Ti      13.37125      1.86746      6.52132        -0.878073      0.110152     -0.627160
Ti      13.22702     13.37224      6.55034         0.005181     -0.770681     -0.458183
Ti       1.90835      1.83183     10.70929         0.677013      1.041966      0.364798
Ti       1.86037     13.22323     10.70695        -0.118830     -0.305346      0.014315
Ti      13.29087      1.82846     10.77878        -0.234870      0.722091      0.185040
Ti      13.14636     13.21463     10.72224         0.875207      0.619731      0.940929
Ti       1.91517      5.70384      2.28640        -0.284041     -0.578557     -1.205128
Ti       1.90787      5.67627     15.00182         0.996883      0.514292      0.471118
Ti      13.32837      5.80548      2.21880        -0.293910     -1.045450     -0.139444
Ti      13.39178      5.67388     15.04193        -0.647032      0.452537     -0.921930
Ti       1.92051      5.72275      6.54502        -0.378945     -0.948654      0.392468
Ti      13.35035      5.69893      6.53261        -1.275734     -0.077493     -0.032314
Ti       1.90771      5.64765     10.75887        -1.355787     -0.484736      0.597103
Ti      13.30288      5.63351     10.72058         0.566139     -0.397452      0.252388
Ti       1.91552      9.55683      2.17240        -0.320001     -0.253346      1.661971
Ti       1.98497      9.54428     14.97504        -0.513441     -0.374591     -0.332233
Ti      13.28665      9.52987      2.12333        -0.123513     -0.194139     -0.412256
Ti      13.34244      9.53971     14.93951        -0.053379     -1.608213      2.483889
Ti       1.88501      9.51806      6.47268        -0.201546     -0.054767      0.045736
Ti      13.28483      9.54465      6.57536        -0.171442     -0.252739     -1.332415
Ti       1.91117      9.45780     10.63090        -1.108438      0.377419     -0.237031
Ti      13.18996      9.47187     10.63182         0.612251     -0.284814     -0.055708
Ti       5.70374      1.89353      2.35181        -0.291676     -0.388958     -1.581924
Ti       5.68556      1.83500     14.98621        -0.087874      0.993004     -0.188855
Ti       5.65312     13.28169      2.31627        -0.038313      0.645789      0.711699
Ti       5.76201     13.25905     14.96358        -0.986820      0.335335     -0.227098
Ti       5.72526      1.86978      6.55897        -0.778647      0.866910     -0.989936
Ti       5.60660     13.31446      6.46812         0.112841     -0.881369     -0.888696
Ti       5.69283      1.82492     10.65642         0.466410      0.452933     -0.265584
Ti       5.64539     13.25559     10.64236         0.352070     -0.074878      1.301231
Ti       5.74877      5.71238      2.34864        -0.445422     -0.159362     -1.197360
Ti       5.62933      5.63389     15.07560        -0.006962     -0.487113      0.236015
Ti       5.64723      5.74675      6.40851        -0.316234     -1.543065     -0.507111
Ti       5.66073      5.59396     10.66795         0.530292      1.224734      0.345346
Ti       5.72688      9.49883      2.27486        -0.400297     -0.830066      0.026707
Ti       5.65024      9.51246     15.03073         0.255412     -0.981985     -0.100875
Ti       5.72793      9.48742      6.49197        -1.238051      0.122515     -0.517155
Ti       5.68714      9.46930     10.67250         0.829514     -0.305434      0.091292
Ti       9.56894      1.97934      2.12684        -1.087014     -1.378642      0.423521
Ti       9.55881      1.89985     15.02851        -0.975353     -0.130572     -0.182388
Ti       9.44946     13.32871      2.20871         0.365390      0.303028     -0.206020
Ti       9.41265     13.24608     14.95725         0.489941      0.636933      0.458448
Ti       9.52302      1.85748      6.48244         0.462728      0.562522     -1.093402
Ti       9.45037     13.28987      6.37251         0.179738     -0.031277      0.521889
Ti       9.55370      1.91266     10.70221        -0.412488      0.264070      0.097975
Ti       9.36794     13.29407     10.79901         0.040268     -0.512991     -0.224988
Ti       9.61721      5.76138      2.30846        -1.560254     -0.938999     -1.172164
Ti       9.48400      5.63501     15.03359         0.437285      0.144012     -0.881932
Ti       9.42161      5.68460      6.47480         1.326554      0.567053     -0.618750
Ti       9.46043      5.67417     10.70304        -0.319227     -0.376601     -0.448810
Ti       9.48817      9.50713      2.12372        -0.145235     -0.249961      0.441412
Ti       9.48642      9.40809     14.94765         0.453790      0.019900     -0.035158
Ti       9.52185      9.55361      6.44240        -0.495504     -0.655204      0.338770
Ti       9.48191      9.52662     10.72124        -0.389797     -0.541751      0.161591
O       1.85119      1.72372      0.50906         0.121726      0.236843     -1.399256
O       1.86599      1.80743     13.07855         0.614122     -0.211850      1.259897
O       1.74866     13.30951      0.52308         0.388599      0.222461      0.372800
O       1.96215     13.11520     13.22874        -0.116875      0.703642      0.439323
O      13.26984      1.86575      0.33104         0.409757     -0.235079      0.189669
O      13.32552      1.94609     13.16529        -0.125349     -0.491814      0.639586
O      13.25403     13.40744      0.47185         0.173492     -0.410844      0.108025
O      13.18534     13.28957     13.27020         0.124952     -0.597056      0.301913
O       1.96552      1.84541      4.83133        -0.334682      0.347766     -0.757852
O       1.79615     13.34154      4.72125         0.022799     -0.403091      0.987343
O      13.33007      1.90839      4.69080        -0.224342     -0.153019      0.860731
O      13.24718     13.13540      4.78067        -0.383573      0.690398     -0.051087
O       1.87238      1.92620      8.95314        -0.008443     -0.331779     -0.349601
O       1.77216     13.27712      8.94373         0.223853     -0.319167     -0.544136
O      13.28063      1.86725      9.00555        -0.033409     -0.038815      0.190294
O      13.24038     13.28401      8.95536        -0.271211     -0.022354     -0.125697
O       1.93060      5.71086      0.48965        -0.460699     -0.164007      0.882159
O       2.09878      5.72044     13.23090        -0.688425     -0.030883      0.333619
O      13.41469      5.75396      0.45429        -0.333117     -0.096113      0.204771
O      13.35657      5.58956     13.22134        -0.304771      0.472573      1.034684
O       1.88412      5.61051      4.79848        -0.097224      0.266946     -1.096979
O      13.45250      5.72778      4.75771        -0.350547      0.043660      0.257616
O       1.92324      5.71641      8.99935        -0.185577      0.205099     -0.230182
O      13.30882      5.51840      8.92429         0.006603      0.679983      0.447364
O       1.92322      9.57618      0.42647         0.082167     -0.037941      0.502431
O       1.95645      9.56339     13.16896        -0.009126      0.033445      0.283365
O      13.21007      9.32746      0.35352         0.474752      0.636391      1.305022
O      13.35948      9.61752     13.22480        -0.137484     -0.003923     -1.322732
O       1.92906      9.52567      4.68489        -0.334903     -0.158645     -0.150325
O      13.19894      9.45393      4.75822         0.209157      0.265383      0.523143
O       1.90439      9.47980      8.81382         0.159781     -0.229240      1.201832
O      13.04244      9.49235      8.83711         0.657561      0.384250      0.364704
O       5.84565      1.85402      0.49612        -0.373185     -0.091159      0.928628
O       5.60708      1.87854     13.20690         0.069351     -0.193190     -0.156347
O       5.67363     13.36446      0.56410        -0.039721     -0.271530     -0.358606
O       5.73548     13.28770     13.18699        -0.478337     -0.022735      0.975204
O       5.54870      1.92532      4.75309         0.619386     -0.302134      0.258609
O       5.64470     13.23243      4.68567         0.202454      0.139567      0.035007
O       5.85582      1.74176      8.87041        -0.604789      0.553763      0.503988
O       5.56392     13.25351      8.89893         0.553212      0.018154     -0.615990
O       5.65865      5.62805      0.45545         0.355489      0.096751      0.979876
O       5.54478      5.70394     13.31532        -0.025140     -0.201432     -0.625274
O       5.67909      5.61073      4.56673        -0.371615      0.461630      1.634892
O       5.64081      5.68365      8.90681         0.203440     -0.054790      0.561778
O       5.66502      9.38913      0.45644         0.254733      0.508348      0.699938
O       5.67309      9.40865     13.24567        -0.192923      0.335173      0.433203
O       5.75898      9.39126      4.67299         0.094764      0.124459      0.663723
O       5.59596      9.53507      8.89082         0.217379     -0.311131      0.377886
O       9.52237      1.88193      0.34100        -0.188134      0.347709      0.382031
O       9.63419      1.95695     13.25478        -0.403265     -0.232193     -0.066555
O       9.51481     13.26869      0.40247        -0.227509     -0.211588      0.941084
O       9.32822     13.33456     13.20520         0.547221     -0.228091     -0.205178
O       9.62310      1.73917      4.65349        -0.274069      0.326604      1.241222
O       9.45677     13.25152      4.59144         0.125175      0.263841      0.583822
O       9.52921      2.00207      8.91160        -0.094458     -0.480976      0.335486
O       9.33638     13.26574      8.98627         0.459360     -0.057346      1.235743
O       9.64109      5.57460      0.45578        -0.336121      0.426846      1.440836
O       9.54671      5.72924     13.15151         0.009664     -0.231414      1.110413
O       9.50734      5.87196      4.72825        -0.289756     -0.336909     -0.472554
O       9.39194      5.70818      8.84931         0.195661     -0.115705      0.948643
O       9.55154      9.55590      0.33496        -0.199280     -0.240028      0.338971
O       9.38537      9.29602     13.13757         0.598136      0.448533      1.528083
O       9.39103      9.36098      4.64704         0.054976      0.456323      0.725943
O       9.40159      9.59066      8.93507         0.431230     -0.185415      0.206627
O       3.77737      1.70004      2.64064         0.399642      1.148101     -0.408399
O       3.80066      1.85511     15.42422        -0.128147     -0.736572     -0.086807
O       3.67848     13.33228      2.72209         1.234283     -0.139870     -0.637891
O       3.81243     13.36021     15.47492         0.752651      0.007952     -0.358683
O      15.16276      1.77381      2.52238        -0.263614      0.219930     -0.065796
O       0.04310      1.83819     15.25923        -0.719674      0.059697      0.308300
O      15.11710     13.40540      2.82246        -0.260666     -0.520458     -1.082162
O       0.01980     13.22926     15.40728        -0.433497     -0.052284     -0.462595
O       3.78586      1.88909      6.94769         0.193678      0.121651      0.219019
O       3.78011     13.23074      6.84347        -1.137161     -0.152959      0.011227
O      15.19291      1.69943      6.96227        -0.360422      0.463476     -0.260353
O      15.10204     13.42629      6.89729         0.515496     -0.307396      0.046892
O       3.84028      2.01436     10.97966        -0.487568     -0.343874      0.090829
O       3.78650     13.05902     11.04881        -0.320730      0.701821      0.123578
O       0.06466      1.69166     11.12605        -1.426314      0.152728     -0.156971
O      15.12340     13.33797     11.09349         0.163393     -0.145812      0.023432
O       3.73848      5.62428      2.60023         0.142640     -0.175892      0.211780
O       3.77634      5.66069     15.57927        -0.532694      0.158694     -0.669802
O      15.14961      5.70119      2.70551         0.419113      0.296658     -0.449341
O       0.11223      5.59582     15.43013        -0.763324     -0.125526     -0.180229
O       3.78676      5.65284      6.95091         0.292151      0.082583     -0.569836
O      15.19102      5.68910      7.03495         0.263525      0.642508     -0.702231
O       3.73872      5.54769     11.13533         1.040954      0.726601     -0.421433
O      15.16374      5.62543     11.26382         0.633691      0.728395     -0.687924
O       3.75438      9.51948      2.66559        -0.255874      0.017873     -0.413728
O       3.81611      9.37929     15.49296         0.522249      0.701484     -0.453427
O      15.16732      9.50611      2.56533         0.289399      0.150182     -0.313031
O       0.15151      9.60240     15.37163        -1.606285      0.258187     -0.069576
O       3.76506      9.51311      6.77362         0.780881     -0.120332      0.136732
O      15.16701      9.52935      6.81961        -0.080615     -0.411327      0.322704
O       3.83868      9.54439     11.07044        -1.199375     -0.202618     -0.222712
O      15.11057      9.63973     10.82851         0.771298     -0.803697      0.386789
O       7.63933      1.86756      2.75084        -0.119331      0.252587     -0.771216
O       7.59985      2.03946     15.28418         0.427650     -0.331357      0.051789
O       7.60031     13.22504      2.55725        -0.871058      0.039155      0.149050
O       7.61173     13.18636     15.49147        -0.844285      0.304916     -0.272251
O       7.62160      1.88262      6.76665        -0.289298     -0.520520     -0.041070
O       7.58300     13.27267      6.77050        -0.208460      0.333061     -0.099003
O       7.58261      1.84785     11.14890         0.444484     -0.073589     -0.207479
O       7.49476     13.37767     11.22558         0.850757     -0.063351     -0.877829
O       7.54625      5.57223      2.63984         1.664719      0.759452     -0.332727
O       7.59697      5.57479     15.30886        -0.154097      0.264583      0.127841
O       7.50636      5.72792      6.77973         0.427806      0.052164     -0.031826
O       7.56269      5.66209     11.12728        -0.085163      0.286317     -0.228436
O       7.59012      9.41108      2.53486        -0.282125      0.273564      0.052698
O       7.56935      9.37979     15.41793         0.355643      0.384390     -0.385560
O       7.53282      9.48965      7.01913         0.854781     -0.270878     -1.272990
O       7.60200      9.36526     11.17535        -0.705703      0.274180     -0.455957
O      11.37472      1.89198      2.51685         0.682234     -0.183475      0.113712
O      11.44977      1.74456     15.34326        -0.331435      0.757772     -0.128949
O      11.35126     13.25000      2.65396         0.070332      0.217596     -0.390868
O      11.30600     13.22208     15.45590         1.025525     -0.043083     -0.844074
O      11.40706      2.00394      6.77167        -0.452077     -0.260581      0.428697
O      11.30141     13.40022      6.95117        -0.290496     -1.183635     -0.593394
O      11.40713      2.04556     11.16419        -0.225944     -0.440433     -0.469724
O      11.33134     13.21326     11.27020        -0.570299     -0.315810     -0.534669
O      11.41011      5.68921      2.76222         0.786862      0.232052     -0.621913
O      11.41915      5.62964     15.44668         0.892282      0.626756     -0.435627
O      11.37670      5.62561      6.86841         0.091151      0.387667     -0.188624
O      11.41171      5.63512     11.05819        -0.524506     -0.056933     -0.080534
O      11.32717      9.48292      2.59813         0.781114      0.160381     -0.351568
O      11.45496      9.36511     15.34239        -0.771786      0.395048     -0.732683
O      11.33617      9.56157      6.83975        -0.358419     -0.227246     -0.189017
O      11.37021      9.54987     11.10827        -0.520537     -0.190282      0.236092
O       1.79434      3.72427      2.61341         0.251913      0.637310     -0.046495
O       1.93649      3.69667     15.39811         0.029105      0.890555     -0.182961
O       1.85490      0.02609      2.78715        -0.109094     -0.758357     -0.454738
O       1.93777      0.01867     15.34130        -0.297138     -1.046754     -0.074366
O      13.28930      3.75268      2.51139         0.021641      0.544146      0.084901
O      13.27990      3.74281     15.40852         0.399291     -0.178129     -0.036747
O      13.16299      0.01533      2.62199         0.156279     -0.285779     -0.074319
O      13.28462     15.15348     15.33029         0.213198     -0.472185     -0.228080
O       1.82572      3.82813      6.95291         0.181507     -0.506644     -0.219836
O       1.97387      0.00516      6.84865        -0.207054     -1.252208      0.485257
O      13.32618      3.76963      6.84358         0.364782      0.035142     -0.148443
O      13.07017     15.19099      6.96525         0.744623      0.714766     -0.493081
O       1.76052      3.74897     11.14323         0.476719      0.103134     -0.341420
O       1.96315     15.10924     10.89530         0.438081      0.091573      0.908558
O      13.41971      3.78579     11.19280        -0.284112     -0.866129     -0.544342
O      13.14038     15.15764     11.23822         0.368578     -0.056149     -0.506249
O       1.88123      7.59133      2.65807        -0.162463      0.605742     -0.380764
O       1.91741      7.66700     15.41557        -0.038351     -1.273738     -0.535486
O      13.29414      7.67318      2.63538        -0.141742     -0.649103     -0.165584
O      13.54881      7.53584     15.24205        -0.326574      0.651682     -0.010613
O       1.97248      7.60738      6.78350        -0.583145     -0.276082      0.278691
O      13.25191      7.62909      6.98995         0.108347     -0.821358     -0.484998
O       1.74755      7.60036     11.10768         0.839172      0.167761     -0.401926
O      13.29479      7.60337     10.99587         0.130106     -0.420464      0.187711
O       1.81906     11.48622      2.70446        -0.069463     -1.485025     -0.692521
O       2.08919     11.40924     15.51966        -0.372595      0.455079     -0.445825
O      13.25632     11.43258      2.57862         0.083400     -0.582171     -0.320917
O      13.20597     11.35355     15.55015         0.433922      0.712674     -0.813279
O       1.83319     11.37165      6.84286        -0.184152      1.027628      0.005917
O      13.25756     11.42622      6.89942        -0.277389      0.271607      0.229174
O       1.78950     11.32708     11.07730         0.581843      0.154981     -0.199027
O      13.26289     11.35294     11.08169        -0.352860      0.945132      0.058453
O       5.74478      3.75115      2.64148        -0.881281     -0.157130     -0.136140
O       5.50459      3.72755     15.39047         0.789554      0.606733      0.033968
O       5.71884      0.01850      2.64360         0.295059     -1.339417      0.217740
O       5.87118     15.17879     15.29684        -0.412832     -0.761432      0.353664
O       5.67646      3.74329      6.92639         0.032093      0.873213     -0.426172
O       5.54527     15.14008      6.89075         0.848753      0.521363     -0.294831
O       5.79135      3.78738     11.15774        -0.710633     -0.336672     -0.578098
O       5.57688     15.17839     11.05172        -0.072642     -0.368611      0.037476
O       5.54777      7.54537      2.56446         0.356102      0.938890      0.186017
O       5.66539      7.53419     15.44994         0.095506      0.285407     -0.335194
O       5.70200      7.55295      6.87342        -0.382054      0.517497     -0.417418
O       5.70261      7.60367     11.14619        -0.625660     -0.987933     -0.549270
O       5.60163     11.32547      2.70825         0.374341      0.882309     -0.586762
O       5.64660     11.35856     15.42086         0.127461      0.402133     -0.160399
O       5.67113     11.36764      6.87485         0.015249      0.026061     -0.460307
O       5.78070     11.38187     11.10252         0.050951     -0.498963     -0.231474
O       9.54641      3.76264      2.67587        -0.158632      0.711336     -0.319235
O       9.62783      3.82005     15.35773         0.003115     -1.106030      0.064777
O       9.42616      0.01981      2.56548         0.356675     -0.465839     -0.260703
O       9.53990     15.17675     15.36270        -0.759290     -0.171524     -0.317434
O       9.38499      3.81701      6.78954         0.357541     -0.380676     -0.249650
O       9.47192      0.00468      6.97799         0.041763     -0.312388     -1.021094
O       9.38710      3.78903     11.04033         0.288807      0.006270      0.162800
O       9.57272     15.18538     11.14101        -0.170002      0.253063     -0.237492
O       9.44236      7.60037      2.45942         0.278766     -0.296914      0.158956
O       9.58092      7.52524     15.35705        -0.687164      0.440190      0.020852
O       9.45009      7.64395      6.86248        -0.143543     -0.118309     -0.062425
O       9.43987      7.52725     11.09788         0.608188      0.271901     -0.331083
O       9.43232     11.36567      2.57199         0.135193      0.072770     -0.273146
O       9.43915     11.35022     15.32635         0.407094     -0.799271     -0.302250
O       9.44453     11.41123      6.81371         0.006274      0.374284     -0.358764
O       9.34122     11.31235     11.23366         0.385540      1.422508     -0.359914
