  # total energy = -7865.66569863 
CRSYTAL
PRIMVEC
    15.010000000000000    0.0000000000000000    0.0000000000000000
     0.0000000000000000   15.010000000000000    0.0000000000000000
     0.0000000000000000    0.0000000000000000    16.400000000000000
PRESSURE
17.5061 17.3642 8.19328 -0.060069 0.237925 -0.017228
PRIMCOORD
320 1
Pb       3.58346      3.75108      4.02254         0.845918     -0.554616      0.379657
Pb       3.85849      3.67847      0.02815        -0.829555     -0.125798     -0.599936
Pb       3.73465     14.97061      4.10128         0.407164      0.056592      0.095409
Pb       3.65751      0.01147      0.00225         0.175710      0.022995     -0.135398
Pb       0.00709      3.71615      4.13291         0.047835      0.231990     -0.145054
Pb       0.02502      3.84915      0.08828         0.192750     -0.415361     -0.902046
Pb       0.05536     14.94963      4.05177        -0.672916      0.135755      0.994709
Pb      14.94001      0.02404     16.34774         0.316291     -0.220169     -0.261275
Pb       3.91669      3.68206      8.22282        -0.067980      0.201375     -0.577184
Pb       3.82714     14.94906      8.33387        -0.003331     -0.197978     -0.744504
Pb       0.10574      3.66321      8.12781        -0.566852      0.252190      0.556642
Pb       0.13454      0.06097      8.30940        -0.352567     -0.570130     -0.509438
Pb       3.80105      3.78997     12.35518        -0.028752     -0.128793     -0.075892
Pb       3.82185      0.05373     12.25939        -0.562154     -0.734931      0.604667
Pb      14.97237      3.66275     12.28362         0.260748      0.399242     -0.188865
Pb      14.90711     15.00207     12.29057         0.775364      0.139146      0.450998
Pb       3.58409      7.58778      4.06994         0.508129      0.011276      0.522207
Pb       3.72895      7.46077     16.39072         0.179338      0.218420     -0.544248
Pb      14.87256      7.43469      4.10022        -0.033205      0.815149      0.003813
Pb       0.00952      7.47763      0.03744        -0.360504      0.084172     -0.013371
Pb       3.66038      7.46521      8.30727         0.412357      0.172630     -0.734789
Pb      14.94536      7.43483      8.13036         0.087237      0.182118     -0.133470
Pb       3.81436      7.47232     12.35395         0.078355     -0.084677      0.056219
Pb       0.14769      7.50221     12.33964        -0.898440     -0.373329     -0.416925
Pb       3.65084     11.30142      3.92398         0.274069     -0.087048      0.894963
Pb       3.69484     11.29167      0.09373         0.066702     -0.376699     -0.548762
Pb      14.84233     11.29183      4.15464         0.156019     -0.330025      0.137725
Pb      14.97252     11.12679     16.35804        -0.050955      0.903751      0.696189
Pb       3.64954     11.15476      8.24185         0.585121      0.804715     -0.143621
Pb      14.89649     11.18489      8.29613        -0.154396      0.450815     -0.653947
Pb       3.75080     11.22806     12.40296        -0.324086      0.248112     -0.166754
Pb      14.98730     11.19022     12.28932         0.148060      0.209006     -0.155134
Pb       7.47886      3.68558      4.20444        -0.115521      0.031074     -0.148401
Pb       7.46067      3.81346      0.03616         0.413464     -0.680622     -0.381244
Pb       7.41972      0.04121      4.10265         0.306777     -0.415756     -0.023092
Pb       7.53368      0.02792      0.05883        -0.321029      0.358060     -0.203425
Pb       7.59005      3.84084      8.31174        -0.341787     -0.770934     -0.593591
Pb       7.45183     14.76109      8.34995         0.266197      0.744710     -0.285737
Pb       7.58028      3.60727     12.32165         0.181181      0.200615     -0.319546
Pb       7.50022      0.01317     12.30314        -0.035487      0.072840     -0.033968
Pb       7.41990      7.51238      4.12325        -0.147284     -0.152551     -0.132992
Pb       7.45388      7.50064      0.14131         0.459764      0.042227     -0.966202
Pb       7.48629      7.57194      8.18366         0.036033      0.248718      0.146903
Pb       7.52748      7.32773     12.30944         0.445653      0.750850     -0.072211
Pb       7.27403     11.30691      4.10589         0.407459      0.266487     -0.124056
Pb       7.48658     11.25200      0.10132        -0.023738     -0.059006     -0.209683
Pb       7.41547     11.15606      8.35853         0.092092      0.184742     -0.718722
Pb       7.51309     11.16896     12.48588         0.154008      0.173093     -0.570853
Pb      11.41510      3.70793      4.12978        -0.627870     -0.271112      0.184873
Pb      11.17534      3.77703      0.03139         0.669485     -0.610325     -0.739439
Pb      11.24835      0.03839      4.16533         0.418010     -0.301665     -0.362623
Pb      11.16628     15.00071      0.00918         0.684729     -0.039259     -0.474282
Pb      11.28140      3.77648      8.20655         0.196370     -0.341710     -0.561454
Pb      11.33881     14.94712      8.24082        -0.722335      0.181855     -0.248611
Pb      11.32580      3.74371     12.35208         0.169477      0.328589      0.138660
Pb      11.25169     14.91461     12.23042         0.026604      0.185268      0.630509
Pb      11.00205      7.42430      4.11507         1.560038     -0.085088      0.260093
Pb      11.19862      7.49983      0.00451         0.209519     -0.290598     -0.150225
Pb      11.17408      7.50981      8.24465         0.223459      0.444559     -0.538279
Pb      11.25541      7.49947     12.41380        -0.182520      0.068566     -0.884244
Pb      11.13059     11.33846      4.22161         0.932481      0.034303     -0.452766
Pb      11.12351     11.33410      0.08926         0.905232     -0.068389     -0.196147
Pb      11.14243     11.18130      8.19023         0.048617     -0.016153      0.375701
Pb      11.26920     11.26248     12.35429        -0.178470     -0.643499     -0.099449
Ti       1.83149      1.80134      2.12964         1.872673      0.268478     -1.480748
Ti       1.92249      1.85770     14.35871        -0.936505     -0.250603      0.461358
Ti       1.76422     13.11955      2.04197         0.452887      0.255073     -0.216352
Ti       1.83316     13.11224     14.40504         1.313529      0.801515     -1.038941
Ti      13.20186      1.88520      1.94717        -1.336921     -1.318764      0.005316
Ti      13.16864      1.86654     14.36463        -0.970075      0.554451      1.648328
Ti      13.11753     13.18985      2.08739        -0.836220     -0.476851     -0.232379
Ti      13.14356     13.07900     14.30737        -0.843223      0.625220      2.286458
Ti       1.90319      1.83195      6.18764         0.957457     -0.502233      0.152701
Ti       1.78307     13.12565      6.28533         0.378674      0.523407      0.432688
Ti      13.17500      1.81765      6.22014        -0.560868     -0.762965     -0.202854
Ti      13.07594     13.18539      6.25205         0.214373     -2.009702     -0.759133
Ti       1.95556      1.91125     10.24606        -0.207393     -0.493145      0.587295
Ti       1.86786     13.15534     10.36011         0.226436     -0.837641     -0.169795
Ti      13.16410      1.88599     10.29424         0.979143      0.101936     -1.123142
Ti      13.14339     13.13366     10.28169        -1.149843     -0.893862     -0.415027
Ti       1.88229      5.67284      2.10450        -0.960118     -0.948344     -0.857319
Ti       1.85002      5.61015     14.29556         0.933951     -1.214208      0.478429
Ti      13.10546      5.60380      2.10547         0.685091      1.411910     -0.358058
Ti      13.17939      5.64407     14.29142        -1.011599     -1.132998      0.340453
Ti       1.87494      5.58505      6.19946         0.492757      1.076493     -0.202166
Ti      13.17004      5.52581      6.20603        -1.106086      1.344198      0.231558
Ti       1.97460      5.61961     10.25188        -0.917645     -0.406838      0.948321
Ti      13.23598      5.68272     10.23991        -0.723241     -0.860646      0.998993
Ti       1.87870      9.40532      2.05636        -1.273732      0.015337      0.116196
Ti       1.93395      9.35252     14.36275         0.311198      0.895057      0.609356
Ti      13.10162      9.40976      2.08938         1.094989     -0.073519      1.441286
Ti      13.12658      9.37903     14.41936        -0.193354     -0.327297     -0.378816
Ti       1.84454      9.40028      6.23455        -0.691144     -0.622117     -1.061974
Ti      13.09747      9.35659      6.16204        -0.253345      0.187973     -0.910440
Ti       1.78831      9.34555     10.29067         0.613542      0.804348      0.353720
Ti      13.09550      9.35632     10.33823        -0.988458      0.094995      1.555907
Ti       5.65414      1.91152      2.04224        -0.445361     -1.077572     -0.105425
Ti       5.63350      1.83017     14.32293        -0.336250      0.076667      0.612599
Ti       5.57362     13.19058      1.94341         0.872790      0.219434      0.760405
Ti       5.62844     13.12836     14.39591        -0.858218      0.782214     -0.056225
Ti       5.74380      1.89028      6.23948        -1.024478     -0.064445      0.369652
Ti       5.55706     13.13392      6.22925        -0.133865     -0.582241      0.469498
Ti       5.72235      1.95255     10.26257         0.630048     -1.764074     -0.425565
Ti       5.61642     13.06734     10.45018         0.101481      0.865457     -1.035447
Ti       5.58550      5.62842      2.06488         0.196954      0.002746      0.861482
Ti       5.68088      5.65559     14.39962        -0.553518     -0.121194      0.089332
Ti       5.60333      5.70028      6.15747        -0.218070     -0.674069     -0.133084
Ti       5.70721      5.63062     10.27497         0.322810      0.390841     -0.186287
Ti       5.65113      9.33517      2.06200        -0.771251      0.918393      0.991352
Ti       5.67696      9.43467     14.39442        -1.124461     -1.402534     -0.358988
Ti       5.50647      9.40665      6.17415         0.754171      1.093419     -1.407388
Ti       5.53305      9.38139     10.41149         0.662854     -0.425127      0.084794
Ti       9.43276      1.86870      2.11560        -0.971024      0.120356     -0.462378
Ti       9.36764      1.79932     14.39744         1.162856     -0.277824     -0.546567
Ti       9.32768     13.13095      2.01935         0.166501     -0.206000      1.788499
Ti       9.34316     13.04090     14.35050         0.732439      0.981051     -0.102171
Ti       9.40567      1.80354      6.23413         0.588102     -0.181192      0.607166
Ti       9.28636     13.03072      6.18771         0.365302     -0.569358     -0.281936
Ti       9.59572      1.89332     10.29922        -3.314987     -1.118384     -0.742920
Ti       9.35635     13.14344     10.36947         0.343238     -0.742578      0.273648
Ti       9.34100      5.55830      2.09301         0.541060      0.490222      0.416167
Ti       9.40411      5.49071     14.33450        -0.402373      1.408499      0.272350
Ti       9.31817      5.59521      6.22933         1.038083     -0.021322     -0.222257
Ti       9.46173      5.59975     10.20594         0.295080      0.901049      1.500152
Ti       9.42505      9.34326      2.11401        -1.032938      0.699862     -0.981164
Ti       9.43102      9.31621     14.47077        -0.988539     -0.861565     -0.639541
Ti       9.30803      9.37185      6.09233        -0.304348      0.341059      1.424746
Ti       9.29661      9.42135     10.45147         0.995766     -1.060534     -0.742031
O       1.85529      1.72194      0.27042         0.293717      0.249532      0.660566
O       2.01212      1.77143     12.54909        -0.193989      0.842173     -0.526024
O       1.74413     13.13450      0.22543         0.506815      0.141041      0.346928
O       1.89320     13.10431     12.54825        -0.327542     -0.323855      0.185525
O      13.06470      1.77922      0.12507         0.376591      0.748565      1.863164
O      13.11947      1.86831     12.58920         0.146383     -0.029901     -1.292516
O      13.11100     13.18210      0.29135         0.432178     -0.288885     -0.016349
O      13.10520     13.03792     12.53299         0.242245      0.317089     -0.129729
O       1.79811      1.80314      4.35207         0.248441      0.625778     -0.396206
O       1.72711     13.11274      4.49903         0.439625      0.081407     -0.850241
O      13.03676      1.84944      4.38766         0.249172      0.303662     -0.312844
O      13.08594     13.17260      4.38924        -0.206661     -0.013521     -0.074105
O       1.83856      1.85598      8.40005         0.155400      0.415122      0.879680
O       1.89447     13.29154      8.51081        -0.119943     -0.791288      0.719206
O      13.18668      1.80604      8.44898        -0.192675      0.048022      0.384942
O      13.06770     12.97936      8.46739         0.077776      0.744257      0.341592
O       1.79052      5.67059      0.23963         0.092871     -0.136615      0.459387
O       1.85851      5.57101     12.46468         0.137342     -0.238038      1.044007
O      13.22622      5.60515      0.27372        -0.203594      0.022180      0.521079
O      13.26782      5.62558     12.49108        -0.292240     -0.337785      0.366549
O       1.76114      5.73604      4.36663         0.706145     -0.745119     -0.205926
O      13.08799      5.63243      4.40396         0.665973     -0.543747     -0.576930
O       1.86921      5.54104      8.44865         0.196986      0.286597      0.129719
O      13.09937      5.49995      8.44279         0.458749      0.429411      0.017307
O       1.90994      9.47032      0.21428        -0.315258     -0.499960      0.231826
O       1.96003      9.42965     12.53063        -0.440615     -0.009350      0.785352
O      13.20705      9.42563      0.31352        -0.306589     -0.326641     -1.058656
O      13.06896      9.33954     12.57808         0.353201      0.302949      1.169237
O       1.93690      9.31493      4.34680        -0.334094      0.370852      0.599188
O      13.17293      9.28602      4.29087        -0.353190      0.433745      1.882016
O       1.88211      9.25651      8.49129         0.009760      0.237259     -0.098367
O      13.13062      9.43939      8.59809        -0.197699     -0.439670     -1.962353
O       5.66200      1.86067      0.18290        -0.057090      0.370780      0.954921
O       5.44019      1.78056     12.47190         0.786232      0.981594      0.771770
O       5.76204     13.15263      0.13066        -0.202569     -0.081075      0.861740
O       5.62639     13.21415     12.54157         0.148085     -0.501450      0.092031
O       5.83365      1.80526      4.41232        -0.870360      0.277708     -0.184462
O       5.67079     13.19506      4.42246        -0.387539     -0.302806     -0.754564
O       5.78262      1.94873      8.40250        -0.389915     -0.040379      0.649791
O       5.65057     13.04872      8.51274        -0.020229      0.207142      0.789671
O       5.57521      5.68686      0.22478        -0.195601     -0.512095      0.605325
O       5.67068      5.64758     12.58283         0.190687     -0.204442     -0.485320
O       5.70549      5.71128      4.30945        -0.167759     -0.153978      0.603572
O       5.63002      5.58160      8.46383         0.031321      0.352217     -0.134976
O       5.62757      9.29377      0.26692         0.287155      0.322717     -0.641944
O       5.42641      9.28949     12.47510         1.031364      0.565564      1.972584
O       5.46007      9.49523      4.23981         0.322462     -0.577576      1.269677
O       5.53088      9.46486      8.60758         0.055248     -0.285654     -1.205056
O       9.29690      1.93182      0.26533         0.111241     -0.024072      0.171123
O       9.36958      1.82658     12.48520         0.432632      0.143865      1.123953
O       9.20237     13.12461      0.24802        -0.002112     -0.387310     -1.076396
O       9.35576     13.16585     12.48745        -0.110697     -0.094309      1.767510
O       9.39557      1.85211      4.41124         0.238673      0.070409     -0.465446
O       9.37733     12.86262      4.33629        -0.075310      0.723046      0.308749
O       9.49111      1.73458      8.50091        -0.125056      0.255138     -0.055938
O       9.32070     13.07101      8.59926         0.096056     -0.236501     -1.825227
O       9.46051      5.47482      0.29808        -0.129839      0.650981     -0.556130
O       9.35487      5.35380     12.52563        -0.222195      0.496361      0.092880
O       9.14555      5.75663      4.39258         0.722060     -0.440273      0.014131
O       9.28907      5.65678      8.40618         0.781204      0.220416     -0.195140
O       9.37979      9.20689      0.18440        -0.477820      0.327186      1.081305
O       9.54775      9.31310     12.61179        -1.030444      0.531570      0.292183
O       9.36293      9.32960      4.29687         0.042090      0.275280     -0.427141
O       9.46636      9.35367      8.58310        -0.624409     -0.215937      0.684082
O       3.74761      1.97336      2.38095         0.110129      0.136172      0.221174
O       3.74070      1.66864     14.79636         0.760812      0.168867     -0.636329
O       3.71562     13.13935      2.27731         0.043925     -0.873297      0.102784
O       3.76703     13.42468     14.62506        -0.534724     -0.587259      0.220340
O       0.03511      1.49874      2.14905        -1.721616      1.124470      0.637178
O      14.98443      2.06431     14.64272         0.918321      0.276125     -0.063968
O      14.97585     13.33568      2.42402         0.314029     -0.314369     -0.458764
O      15.00620     13.02104     14.60681        -0.954438     -0.870965     -0.074434
O       3.82410      2.01678      6.47952        -0.682887     -0.251915     -0.270165
O       3.72133     13.08921      6.48750        -0.530880      0.370231      0.137344
O       0.01340      1.64014      6.39915        -0.453902      0.527938      0.294212
O      14.90453     13.31680      6.56269         1.893862     -0.100164      0.174665
O       3.81628      2.20148     10.39654        -0.814132     -0.293655      0.033003
O       3.76760     12.81851     10.57254        -0.709407      0.243900     -0.230349
O       0.00139      1.62289     10.59346         1.252974      0.182061     -0.086712
O      14.95268     13.36103     10.60713         1.180556      0.006094     -0.215803
O       3.70873      5.41140      2.41913         0.269790      0.647011     -0.369418
O       3.76853      5.81366     14.55862        -0.635837     -0.171054      0.184134
O      14.99166      5.69783      2.47646         0.341991     -0.479021     -0.492929
O      14.98067      5.35135     14.60772         1.518938      0.272115      0.094877
O       3.71695      5.50414      6.47963         0.545942      0.237820     -0.253981
O       0.00827      5.63889      6.46089        -0.255073      0.214748      0.305431
O       3.83422      5.45862     10.58466        -1.128198     -0.403096     -0.196092
O       0.04916      5.77790     10.57682         0.604164      0.291028     -0.421572
O       3.72279      9.62859      2.24633         0.181433     -0.395380      0.059881
O       3.78525      9.26060     14.71432        -0.640723     -0.774997     -0.144548
O      14.99693      9.31915      2.35462         0.762752      0.004926     -0.208873
O       0.01910      9.59748     14.69031         0.148051     -0.718339     -0.816440
O       3.68774      9.36742      6.37428        -0.431625     -0.104497      0.840146
O      14.97622      9.22073      6.61309         0.104658      0.357399     -0.471640
O       3.71893      9.65421     10.56607        -1.037626      0.044724     -0.304386
O      14.94992      9.09283     10.63592         0.926979      0.306564     -0.108962
O       7.48584      1.73889      2.35353         0.295568      0.007451      0.038550
O       7.48591      1.98547     14.53087        -0.060899      0.054704      0.084172
O       7.49372     13.23350      2.43568        -1.029068      0.384218     -0.488752
O       7.48779     12.84600     14.50577         0.588643      0.069279      0.289817
O       7.59418      1.83110      6.41854        -0.518332      0.147816      0.411122
O       7.46871     12.80718      6.44820        -0.117403      0.644529      0.261236
O       7.57139      1.65165     10.59039        -0.080658     -0.008535     -0.116865
O       7.50137     13.48766     10.56097        -0.324092     -0.232593     -0.100100
O       7.47370      5.78472      2.17249        -0.702940      0.236270      0.273847
O       7.52429      5.46034     14.72814        -0.021906     -0.071628     -0.049039
O       7.49652      5.64476      6.51544        -0.354193      0.563954     -0.091768
O       7.56706      5.85172     10.48931        -0.546601     -0.331103     -0.012732
O       7.47492      9.21037      2.38518        -0.060362     -0.122962     -0.388198
O       7.48262      9.52953     14.57132         0.504096      0.380677      0.166013
O       7.39846      9.48846      6.48605         1.045881     -0.792654     -0.215221
O       7.47985      9.12021     10.57473        -0.540582      0.093415      0.351580
O      11.23493      2.09608      2.27176         0.769348     -0.283335      0.157268
O      11.24406      1.74822     14.65102        -0.809553     -0.219579     -0.131573
O      11.20165     12.96409      2.13774        -0.113031      0.095669      0.819386
O      11.25136     13.23145     14.77209        -0.107811      0.050255     -0.604108
O      11.27049      1.92197      6.57711        -0.205823     -0.560338     -0.274081
O      11.24311     12.85106      6.42561        -0.843013      0.444228      0.183892
O      11.33346      2.04029     10.61997         0.308501      0.343321      0.196465
O      11.23320     12.86384     10.69134         1.011504      0.292718     -0.622788
O      11.31182      5.55197      2.49655        -1.637289     -0.167973     -0.422086
O      11.22935      5.76417     14.57961         0.341488     -0.082704      0.250358
O      11.33685      5.56433      6.44628        -2.324321     -0.123355      0.164254
O      11.31259      5.46839     10.61170        -0.442849     -0.476709     -0.454113
O      11.24040      9.50472      2.28611        -0.206522     -0.163525      0.164277
O      11.22158      9.23345     14.80750         1.712796     -0.546947     -0.262789
O      11.20282      9.42756      6.51719         1.170418     -0.242236     -0.439486
O      11.22858      9.53926     10.72360         0.381381      0.119060     -0.715972
O       1.79489      3.73220      2.18919        -0.796187     -0.358031      1.008442
O       2.13861      3.68744     14.70755        -0.335036      1.471096     -0.241694
O       2.02005     14.95536      2.53710        -0.166522     -0.010333     -0.519384
O       1.63799      0.00469     14.56150         0.177293     -0.342632      0.435721
O      13.17822      3.69887      2.37040         0.958556      0.133628      0.040052
O      12.90238      3.80305     14.63321         0.037913     -0.720281     -0.136165
O      12.95714      0.04431      2.43957        -0.476972      0.290308     -0.303839
O      13.25927      0.00470     14.73207        -0.229790     -1.210502     -1.275761
O       1.64061      3.70451      6.32870         0.393311      0.312422      0.004064
O       1.96659      0.03238      6.58959         0.253845     -0.622086     -0.451073
O      13.13763      3.64804      6.45111         0.679053      1.005286     -0.010838
O      12.94150     14.96285      6.39003        -0.465168      1.265403      0.521084
O       1.66033      3.72838     10.49873         0.170752      0.223902      0.016093
O       2.16933     14.97542     10.53157        -0.265360      1.176610     -0.221790
O      13.33884      3.69243     10.52548         0.069722      1.196463      0.240397
O      12.96115      0.01982     10.56702        -0.488725     -1.122213      0.040054
O       1.95351      7.51835      2.22911         0.444662      0.034972      0.252055
O       1.73346      7.45509     14.56911        -0.337082      0.775614      0.189680
O      13.12182      7.52021      2.37359        -0.505412     -0.612828     -0.424929
O      13.26707      7.46902     14.66169         0.231793      0.946473      0.306368
O       1.93128      7.49782      6.56075        -0.125237     -0.745410     -0.176339
O      13.01452      7.47158      6.48032         0.625253      0.219165      0.345451
O       2.09280      7.53468     10.68139        -0.020992     -1.179179     -0.703266
O      12.94545      7.46110     10.65487         0.017703      0.423324     -0.731852
O       1.71841     11.27949      2.32940         0.113592      0.421872      0.192316
O       2.17748     11.26357     14.70547        -0.767575     -0.135692     -0.559270
O      13.23774     11.34065      2.52842        -0.177208     -0.917729     -0.867176
O      12.88678     11.18403     14.76217         0.706896      1.323848     -0.545758
O       1.84983     11.26318      6.59607        -0.639300     -0.552206     -0.121246
O      13.38928     11.27275      6.34790        -0.536212     -1.680942      0.157699
O       1.52115     11.22442     10.50052         0.330997      0.317540     -0.112835
O      13.38735     11.25965     10.52030         0.049942     -0.323277      0.479116
O       5.71339      3.72124      2.42032         0.110199      1.289006     -0.171622
O       5.47991      3.73966     14.60057        -0.199733     -0.209401      0.084713
O       5.41736      0.03918      2.34543         0.721563     -0.542810     -0.006231
O       5.78286     14.99877     14.66206         0.518413      0.180429     -0.158727
O       5.71774      3.83513      6.41187         0.163151     -0.724927     -0.158683
O       5.64211     14.97601      6.51251         0.229651      0.683083      0.154776
O       5.92493      3.76565     10.47469        -0.044733      0.312598      0.617897
O       5.43423      0.05915     10.53372        -0.217031     -0.671010     -0.533197
O       5.32212      7.50717      2.32210         0.331248     -0.522658     -0.190837
O       5.83978      7.51014     14.72593        -0.341477      0.328096     -0.392501
O       5.54855      7.58705      6.49248         0.190538     -1.657637      0.261596
O       5.41652      7.46720     10.55918        -0.074294      0.493990     -0.119896
O       5.74118     11.32109      2.24841        -0.088618     -0.272325     -0.163125
O       5.38855     11.25224     14.71357         0.224990      0.077563     -0.345738
O       5.45676     11.21673      6.44994         0.108183      0.339186      0.258656
O       5.92177     11.27763     10.66844         0.112640     -0.658179      0.081748
O       9.19073      3.78316      2.37916         0.033056     -0.802724      0.475221
O       9.44036      3.65887     14.68050         0.317355      0.215536      0.017929
O       9.50624      0.01993      2.28325         0.011174     -0.533126      0.329971
O       9.23812     14.92956     14.83203        -0.136244      0.416775     -0.904565
O       9.41366      3.72601      6.56096        -0.333248      0.297091     -0.429363
O       9.34396     14.82026      6.44339         0.445755      1.522619     -0.003774
O       9.13966      3.73962     10.41709         0.389296     -0.265499      0.115067
O       9.75326     14.93971     10.47922        -0.228279      1.689672      0.236647
O       9.44696      7.46849      2.34515         0.190539     -0.021218     -0.067499
O       9.22816      7.43508     14.50435        -0.110726     -0.347724      0.488238
O       9.41316      7.52461      6.49973        -0.139330     -0.327108     -0.066065
O       9.49864      7.44962     10.64431         0.589748      0.107162      0.042907
O       9.17818     11.20202      2.14570        -0.057594     -0.045597      0.183802
O       9.59529     11.21671     14.64248        -0.608185      0.422372     -0.007109
O       9.42463     11.12865      6.58412        -0.557264      0.662449     -0.279895
O       9.05092     11.27604     10.67486         0.205558     -0.700157     -0.009271
