  # total energy = -7877.65307456 
CRSYTAL
PRIMVEC
    15.3600000000000000    0.0000000000000000    0.0000000000000000
     0.0000000000000000   15.3600000000000000    0.0000000000000000
     0.0000000000000000    0.0000000000000000    17.440000000000000
PRESSURE
1.93622 1.6723 7.26051 -0.202603 -0.155647 -0.021548
PRIMCOORD
320 1
Pb       3.80004      3.85672      4.41517         0.118695     -0.590703     -0.258297
Pb       3.98320      3.77335     17.35463        -0.767466     -0.087244     -0.393414
Pb       3.79467     15.31828      4.38094         0.157954     -0.192469     -0.719603
Pb       3.91604      0.03554     17.39747        -1.310678     -0.530657     -0.421505
Pb      15.33785      3.82441      4.44334         0.187786     -0.269803     -0.499153
Pb       0.14490      3.86118      0.06477        -0.509289     -0.614403     -0.406735
Pb       0.05401     15.29056      4.33228         0.122892      0.225944     -0.451777
Pb      15.08844     15.29081      0.02486         0.904082      0.113413     -1.058947
Pb       3.74396      3.98007      8.54220         0.155225     -1.410320      1.180360
Pb       3.82621     15.34225      8.84819         0.232700      0.065970     -0.838762
Pb      15.03260      3.93471      8.62347         0.830440     -0.103873     -0.292445
Pb      15.27136      0.19304      8.70299        -0.562593     -0.786460     -0.173634
Pb       3.88242      3.75560     12.93286        -0.142174     -0.190894     -0.432526
Pb       3.73665     15.21210     12.93071         0.038833      0.732736      0.179072
Pb      15.34755      3.66839     13.13239        -0.069395      0.112700     -0.695091
Pb       0.02903      0.02613     12.90456        -0.356987     -0.632044      0.831451
Pb       3.94794      7.67664      4.25157        -1.170740      0.423241      0.665341
Pb       3.67406      7.64077      0.04745         0.775567     -0.238885     -1.099440
Pb       0.22380      7.70049      4.30111        -0.949185     -0.115212      0.197549
Pb      15.30575      7.79586     17.33343        -0.351281     -0.488450     -0.070282
Pb       3.97418      7.61664      8.72232        -0.410355      0.752872     -0.107194
Pb      15.34061      7.63406      8.68010        -0.363990     -0.202314     -0.018134
Pb       3.80984      7.62947     13.06985         0.215232     -0.202509     -0.547041
Pb       0.08481      7.69689     13.12153        -0.600860     -0.601834     -0.518134
Pb       3.61861     11.48411      4.31133         0.850362      0.139010     -0.212011
Pb       4.03764     11.29404     17.30994        -1.550956      1.074507     -0.113934
Pb       0.18067     11.67317      4.15926        -1.165892     -0.442211      0.272771
Pb      15.25060     11.46760     17.29985         0.449575      0.296213      0.081514
Pb       3.77969     11.61054      8.72238         0.280857     -0.550025     -0.558251
Pb      15.34411     11.33804      8.66874        -0.109996      0.755048     -0.001000
Pb       3.97980     11.49399     12.96226        -0.595149      0.050440      0.184451
Pb       0.14652     11.46813     13.15621        -0.749611      0.981865     -0.207246
Pb       7.69989      3.71275      4.41723         0.055612     -0.140097     -0.681212
Pb       7.69107      3.90618     17.28982        -0.018022     -0.328913     -0.042861
Pb       7.69190      0.03808      4.34608        -0.061363     -0.173488     -0.164576
Pb       7.37895     15.32457     17.31914         1.323361      0.253759      0.284173
Pb       7.65533      3.81721      8.69154        -0.158617     -0.033257     -0.090705
Pb       7.68005     15.24772      8.57718        -0.145456      0.776770      0.551018
Pb       7.83591      4.00007     13.28243        -0.396599     -0.675984     -0.888184
Pb       7.68955      0.15406     13.02172        -0.221749     -0.024658     -0.091771
Pb       7.53155      7.49572      4.26980         1.040311      0.469240     -0.758208
Pb       7.62213      7.64426     17.43660         0.118501     -0.023053     -0.477052
Pb       7.59100      7.88197      8.61809         0.265714     -0.762187      0.517238
Pb       7.61434      7.60452     12.96626        -0.191916      0.389613      0.157281
Pb       7.68915     11.38191      4.37516         0.165538      0.420387     -0.500464
Pb       7.52931     11.65608     17.31207         0.996768     -0.486850      0.071369
Pb       7.70930     11.48153      8.68491        -0.214390      0.037416      0.275168
Pb       7.89018     11.65769     13.06805        -0.759620     -0.976389     -0.588701
Pb      11.58796      3.75385      4.36992        -0.675399     -0.028581     -0.462809
Pb      11.55753      3.81671      0.04865         0.162300     -0.047692      0.058874
Pb      11.59086     15.34950      4.25419        -0.645303     -0.209034      0.247801
Pb      11.39204     15.27899     17.21847         0.154451      0.311068      0.717593
Pb      11.57592      4.07205      8.68177        -0.451479     -0.488642     -0.069000
Pb      11.46440     15.27250      8.63893         0.326966      0.512642     -0.333547
Pb      11.54668      3.68739     13.31002        -0.016450      0.331320     -1.539791
Pb      11.42025     15.33232     13.04437         0.437148      0.221567     -0.448084
Pb      11.58966      7.69085      4.20356        -0.855465     -0.172383     -0.134937
Pb      11.41270      7.57766      0.00775         0.120125      0.267547      0.497831
Pb      11.56472      7.69567      8.63861        -0.229077     -0.834955      0.832864
Pb      11.38591      7.71236     13.01234         0.667014     -0.551342     -0.188703
Pb      11.57482     11.36931      4.40585        -0.345218      0.575063     -0.875627
Pb      11.35485     11.49557     17.33653         0.148983     -0.511146      0.624254
Pb      11.50077     11.51663      8.86529        -0.032552      0.002775     -0.930167
Pb      11.46507     11.43769     12.95421         0.202603      0.189849     -0.167116
Ti       1.89088      1.92215      2.37276         0.427197     -0.896658      1.322139
Ti       1.78892      1.81201     15.43300         0.546640     -0.069506      2.401289
Ti       1.90377     13.35553      2.07919         0.933645      1.412276      2.362478
Ti       1.87000     13.34309     15.44245         0.189418      0.905209     -0.153302
Ti      13.41501      1.85019      2.24954        -0.033039      0.871610      0.887821
Ti      13.37177      1.87096     15.42370         1.122336     -0.205457      0.884237
Ti      13.35206     13.43280      2.21238        -0.057966     -0.432312      2.811647
Ti      13.27911     13.30707     15.34537         2.243178      0.761466      1.474295
Ti       1.89339      1.88494      6.75955        -0.555098      0.636830      1.411034
Ti       1.82775     13.50499      6.78936         0.434990     -0.735874      1.790975
Ti      13.34223      1.91652      6.57000        -0.623768     -0.841647      2.738584
Ti      13.46852     13.35617      6.68924        -0.440075      0.611460      1.894040
Ti       1.84901      1.87530     10.91002         0.961463      0.814644      3.161993
Ti       1.87082     13.36589     10.95208        -0.472145      0.485624      2.390259
Ti      13.36201      1.90419     10.94472        -0.851486      0.341266      1.716114
Ti      13.40640     13.46402     11.03553         0.022358     -0.217519      3.105204
Ti       1.92557      5.65820      2.30721        -0.010399      0.709486      2.761318
Ti       1.88291      5.71532     15.42723         0.519040     -0.388701      1.013672
Ti      13.49761      5.69638      2.34553        -0.858426      0.503529      2.228146
Ti      13.46116      5.70649     15.49984        -0.544669     -0.279571      1.452360
Ti       1.97628      5.81419      6.71336        -1.362048     -0.851959      1.313831
Ti      13.40094      5.79796      6.40978        -0.251097      0.058655      2.388721
Ti       1.83763      5.68823     11.05893         0.570008     -0.109271      2.805321
Ti      13.37639      5.78733     11.22360        -0.527522     -0.344873     -0.063617
Ti       1.85693      9.52375      2.10727         0.253762      0.817469      3.538484
Ti       1.85354      9.56678     15.32364         1.243645      0.520398      3.316119
Ti      13.46904      9.63197      2.28518        -0.945899     -0.288527      1.601800
Ti      13.29360      9.51981     15.31515         0.292133      0.870642      1.296488
Ti       1.83515      9.58083      6.64228         1.313440      0.275492      3.221748
Ti      13.40177      9.52811      6.63774         0.225619      0.463570      3.148352
Ti       1.84811      9.56814     11.02821         0.875293     -0.593229      1.661210
Ti      13.47909      9.63462     11.10844        -2.194216     -0.615939      2.122119
Ti       5.75053      1.97448      2.32030        -0.001234     -1.079846      2.384741
Ti       5.70138      1.86006     15.27453         0.234336      0.867714     -0.828167
Ti       5.79174     13.41551      2.36532        -0.639292      0.452336      1.648125
Ti       5.70520     13.37092     15.24084        -0.953931      0.680124      1.295417
Ti       5.73630      1.87738      6.76298        -0.209222      0.078628      1.429763
Ti       5.80010     13.37418      6.74770        -1.628072      0.642134      1.100955
Ti       5.82021      1.91684     10.94304        -0.828766      0.234456      0.635300
Ti       5.80133     13.47091     11.07388         0.095079     -0.752049      0.777387
Ti       5.68833      5.63382      2.29795         1.331593      0.625247      2.581838
Ti       5.68930      5.76918     15.32299         0.559347      0.054484      1.610014
Ti       5.79053      5.71809      6.58838        -0.264550     -0.204395      1.965128
Ti       5.71463      5.70325     10.98750        -0.835200      0.163172      2.748931
Ti       5.72904      9.63488      2.27287        -0.181108      0.244831      3.107097
Ti       5.76281      9.52198     15.29594         0.018126     -0.648918      2.517090
Ti       5.71096      9.61024      6.63067        -1.428981      0.534568      2.377299
Ti       5.69379      9.55634     11.04753         1.067396      0.372410      0.659040
Ti       9.60274      1.78759      2.15123        -1.182919      1.162561      1.753419
Ti       9.56650      1.90134     15.41568        -0.760546     -0.366515      1.561518
Ti       9.52852     13.44657      2.34223         0.406457     -1.034685      1.125545
Ti       9.58614     13.42074     15.29147        -0.766341     -0.172846      1.118400
Ti       9.59096      1.96421      6.72509         0.033748     -0.381506      0.933712
Ti       9.59935     13.42691      6.63185         0.459944     -0.303269      0.559494
Ti       9.54791      1.92563     10.89572         0.189258      0.541858      2.696680
Ti       9.55863     13.53706     10.94653         0.114220     -0.857779      1.605359
Ti       9.66632      5.56727      2.42272        -0.778579      0.846765      0.446465
Ti       9.67510      5.77075     15.39172        -1.374228     -0.334925      1.705215
Ti       9.49304      5.75686      6.62020         1.084816      0.569864      2.062304
Ti       9.57963      5.69963     11.05609         0.595767     -0.577787      1.009127
Ti       9.56156      9.56072      2.23520        -0.016959     -0.332625      1.962264
Ti       9.54416      9.52402     15.36142        -0.187734      0.327475      1.489935
Ti       9.63159      9.56206      6.68419        -0.312306     -0.064608      1.448614
Ti       9.55000      9.53687     11.05339        -0.486020      0.337390      0.688613
O       1.85992      1.98264      0.68177         0.139642      0.015858     -1.726940
O       1.75213      1.80443     13.74740        -0.011736      0.404871     -2.060414
O       2.05022     13.43205      0.41178        -0.328842      0.081383     -1.110526
O       1.84825     13.35513     13.65245         0.144436      0.010890      0.010945
O      13.36573      1.76268      0.49989         0.216652      0.017075      0.036436
O      13.43352      2.00624     13.70538         0.103404     -0.064792     -0.989388
O      13.37843     13.51902      0.52048        -0.181230     -0.142220     -1.650302
O      13.24984     13.22949     13.66031        -0.031014      0.274323     -1.468864
O       1.89894      1.88268      5.04415        -0.083778     -0.160668     -1.705459
O       1.72372     13.49192      5.06096         0.085602     -0.017136     -1.481730
O      13.28346      1.99525      4.85727         0.181329     -0.401615     -1.311647
O      13.45499     13.40465      4.99278         0.342598     -0.056735     -1.681417
O       1.85864      1.93641      9.25209        -0.361307      0.018844     -2.583587
O       1.84348     13.34402      9.26906         0.242079      0.082495     -1.409396
O      13.31577      1.87870      9.20091         0.159798      0.340160     -0.022151
O      13.32239     13.45864      9.38840        -0.081914     -0.106161     -3.271092
O       2.08415      5.63631      0.63844        -0.364046      0.453789     -2.368692
O       1.88279      5.65634     13.72403        -0.119071      0.226024     -1.383900
O      13.37996      5.67220      0.65783         0.080129      0.023764     -2.333398
O      13.21375      5.72069     13.82964         0.495296     -0.310064     -1.688501
O       1.94689      5.81768      5.02060        -0.017785     -0.059071     -1.855354
O      13.31873      5.70121      4.69221         0.440412      0.109008     -0.288933
O       1.80072      5.70777      9.39612        -0.039132      0.105643     -3.037517
O      13.36131      5.72319      9.45248         0.113530     -0.094815     -0.378749
O       1.95872      9.69056      0.44351        -0.062896     -0.844689     -2.295424
O       1.88348      9.62204     13.64760        -0.335722     -0.175045     -2.528656
O      13.56321      9.75249      0.60669        -0.467652     -0.542943     -1.921406
O      13.31449      9.63613     13.61388         0.097060     -0.134465     -0.940217
O       1.92123      9.59487      4.97015        -0.496722     -0.022742     -2.697071
O      13.37963      9.56866      4.97310        -0.064069      0.161359     -2.762524
O       1.84313      9.45960      9.33542        -0.189596      0.301538     -0.805312
O      13.52596      9.53627      9.43960        -0.009953     -0.134005     -3.194223
O       5.78519      2.02489      0.62473        -0.361004     -0.271696     -2.356498
O       5.81833      1.88090     13.50447        -0.449202     -0.061740      0.549264
O       5.76866     13.41552      0.63014         0.226549      0.187395     -1.620421
O       5.65526     13.32933     13.53735         0.215525      0.552810     -0.890129
O       5.79505      1.99995      5.05849        -0.144012     -0.293771     -1.484095
O       5.72804     13.36989      5.06567         0.091197     -0.210859     -1.921170
O       5.85073      1.75990      9.17897        -0.323673      0.571364      0.352758
O       5.65641     13.38318      9.36317         0.315699      0.260796     -1.386264
O       5.70988      5.58005      0.61972         0.059935      0.179207     -2.285634
O       5.70749      5.82978     13.62434        -0.226503     -0.176227     -1.254517
O       5.69284      5.60859      4.88915         0.106744      0.481118     -1.553344
O       5.72911      5.79675      9.32373         0.055954      0.081469     -3.430256
O       5.79459      9.70544      0.59737        -0.007291     -0.408999     -2.620345
O       5.66554      9.38951     13.65287         0.175922      0.218409     -2.771795
O       5.56014      9.71749      4.94723         0.382969      0.016385     -1.780295
O       5.70395      9.58644      9.30851         0.110692     -0.187707     -1.075420
O       9.53635      2.03411      0.45019         0.066512     -0.316937     -1.650686
O       9.45033      1.74301     13.72928         0.293494      0.086494     -1.708386
O       9.49812     13.35941      0.62370        -0.003157     -0.151028     -1.560688
O       9.60731     13.57043     13.57015         0.091673     -0.503252     -0.562524
O       9.56430      1.85366      4.99582        -0.087100      0.098803     -0.664769
O       9.48551     13.52785      4.90593         0.327222     -0.394790     -0.229396
O       9.44869      1.90107      9.19428         0.371483      0.337586     -0.846590
O       9.61570     13.43070      9.24103        -0.094395     -0.370350     -1.748803
O       9.70226      5.65412      0.68346        -0.239205     -0.310784     -0.963477
O       9.64019      5.70689     13.69582        -0.062819      0.450059     -1.698794
O       9.46712      5.81623      4.92612         0.062448     -0.223559     -1.485129
O       9.77918      5.75557      9.33858        -0.622986     -0.384573     -0.433894
O       9.56653      9.54859      0.51656        -0.093963      0.221415     -0.733622
O       9.50666      9.61526     13.65173         0.331204     -0.431723     -1.224657
O       9.60643      9.52926      4.99262        -0.089007      0.164077     -1.799093
O       9.49376      9.56361      9.32063        -0.056218      0.002784     -0.835385
O       3.87144      1.85938      2.83899        -0.493940      0.496668     -0.008119
O       3.85801      1.99130     15.76080        -0.828568     -0.698771      0.229309
O       3.76184     13.33596      2.79369         0.259138      0.571155     -0.222731
O       3.77780     13.47836     15.79212         1.715256     -0.270651     -0.233831
O      15.34156      2.04781      2.79437        -0.409948     -0.830485     -0.173192
O      15.25731      1.85655     15.89255         0.940535      0.316476      0.200944
O      15.30472     13.49394      2.66229         0.850951     -0.218848     -0.294174
O      15.33220     13.34756     15.78400        -0.737980      0.031480      0.170227
O       3.69026      1.80020      7.19661         1.798556      0.582674     -0.161902
O       3.72888     13.49058      7.12864         0.541336     -0.014618      0.352538
O      15.18368      1.93790      7.06456         0.627463      0.075951     -0.049200
O      15.31216     13.42957      7.29273        -0.168497     -0.039998     -0.415665
O       3.74389      1.91183     11.42352         0.718047     -0.508189     -0.147360
O       3.84018     13.37901     11.45017        -0.784283      0.114176     -0.247628
O      15.28900      1.85680     11.45458         0.341165      0.526839     -0.477474
O      15.28400     13.43657     11.46649         0.666036      0.087272     -0.227836
O       3.83594      5.75390      2.77650        -0.779670     -0.346354     -0.038742
O       3.83297      5.88216     15.81559        -0.229711     -0.734405      0.177975
O      15.34342      5.70522      2.81659         0.667131      0.208010     -0.319006
O      15.31933      5.80873     15.91353         0.406821     -0.308271     -0.030646
O       3.86034      5.74079      7.13445        -0.160286      0.459333     -0.433348
O      15.25182      5.67797      6.93697        -0.058362      0.090009      0.223367
O       3.80743      5.76660     11.39507        -0.559350     -0.148986      0.508245
O      15.27781      5.79000     11.52851         0.649866     -0.238669      0.470898
O       3.67115      9.55806      2.69205         1.197886      0.478844     -0.215340
O       3.79014      9.52290     15.64978         0.621595      0.112415      0.771796
O      15.30973      9.63435      2.64487         1.218466     -0.484647      0.377812
O      15.32328      9.57388     15.79313        -0.089690      0.106766     -0.310431
O       3.71602      9.58813      7.06768         1.256277     -0.404465      0.346874
O      15.31331      9.51139      7.12967         0.109699      0.132852     -0.144527
O       3.84964      9.56523     11.47890        -1.406162      0.402152     -0.095956
O      15.21019      9.47074     11.59365         3.470410      0.160046      0.135499
O       7.62095      1.92588      2.60226         0.405623     -0.247379      0.724412
O       7.57809      1.82367     15.72277         0.470153      0.089332      0.537509
O       7.71835     13.47212      2.86422        -1.207270     -0.534202     -0.219789
O       7.65903     13.46799     15.66749        -0.751524     -0.466494      0.203283
O       7.65728      1.95145      7.20730         0.070142      0.012153     -0.574681
O       7.65776     13.34839      7.13532         0.694612     -0.119277     -0.162238
O       7.63198      2.02608     11.46124         0.818616     -0.568012     -0.270490
O       7.73960     13.40215     11.51639        -0.897887      0.150063     -0.335717
O       7.66917      5.72320      2.72124        -0.898602     -0.080515      0.170510
O       7.68870      5.80261     15.73019        -0.548359     -0.506424      0.393346
O       7.62081      5.60476      7.04435         0.461162      0.694295     -0.065577
O       7.49271      5.74332     11.53313         2.821032     -0.518438      0.024558
O       7.57076      9.52170      2.73532         0.527422      0.050397      0.076934
O       7.72615      9.50072     15.77623        -1.504343      0.356121      0.295682
O       7.58522      9.71085      7.13042         0.433970     -0.476116     -0.503840
O       7.62384      9.58190     11.60632         0.412569     -0.148377     -0.573492
O      11.43361      1.82483      2.55750         1.347254     -0.075374      0.351069
O      11.49583      1.89234     15.73406        -0.917103     -0.133667      0.230800
O      11.48354     13.44644      2.75416         0.407230      0.102598     -0.154936
O      11.46327     13.31210     15.89575        -0.515075      0.684612     -0.547622
O      11.40386      1.87573      7.17516         0.979524     -0.116105     -0.448192
O      11.49987     13.27813      7.02511         0.248060      0.495994      0.389261
O      11.41430      1.78414     11.58137         0.145854      0.585473     -0.836727
O      11.38164     13.43713     11.35082         1.248425      0.083299      0.622755
O      11.50416      5.64576      2.79965        -0.144156      0.120453     -0.067568
O      11.46848      5.75101     16.01497         0.953781     -0.370683     -0.478118
O      11.55625      5.89396      7.04639        -0.505280     -0.385685     -0.329594
O      11.47279      5.67658     11.62306        -0.452152      0.215913     -0.173002
O      11.48314      9.58168      2.71095        -0.065827      0.478541     -0.014186
O      11.43852      9.56884     15.74475         0.744045     -0.391854      0.347399
O      11.50297      9.38688      7.16212         0.355221      1.315276     -0.665132
O      11.46608      9.56141     11.43149        -0.415748     -0.134684      0.126207
O       1.83290      3.84409      2.77574         0.735621      0.157435      0.463608
O       1.89131      3.85263     15.89432        -0.267635     -0.321947     -0.051917
O       2.03341      0.00255      2.69194        -1.075779     -0.528388      0.189920
O       1.85844     15.33836     15.82745         0.282757      0.150787      0.295735
O      13.31724      3.77111      2.74821         0.386293     -0.403669     -0.326944
O      13.45984      3.74639     15.95843        -0.308531      1.303429     -0.251595
O      13.51345      0.01330      2.82858        -0.436269     -0.315417     -0.618405
O      13.42766     15.29435     15.68508        -0.597570     -0.593788      0.484704
O       1.82256      3.83112      7.09924         0.379427      0.359643      0.110804
O       1.82358      0.02235      7.35416        -0.344670     -0.361413     -0.775798
O      13.22463      3.80973      7.00139         0.565753      1.075849     -0.326347
O      13.36733     15.34499      7.10418        -0.092438     -0.260303     -0.348291
O       1.94844      3.77363     11.42195        -0.844943      0.385782      0.373054
O       1.92849     15.32820     11.40074        -0.368429     -0.527579     -0.279823
O      13.30473      3.73228     11.54865         0.513120      0.439351     -0.064059
O      13.38832      0.06630     11.50548        -0.185508     -1.106655     -0.158355
O       1.90254      7.68059      2.83577        -0.016149     -0.594635     -1.327883
O       1.90231      7.62777     15.86674        -0.397205      0.789829      0.062449
O      13.30839      7.64302      2.64824         0.774415      0.464219     -0.148695
O      13.45846      7.68395     15.78719        -0.243277     -0.254861      0.414565
O       1.85100      7.62516      7.15186        -0.020991      0.273473     -0.028830
O      13.45930      7.65621      7.15497         0.299243     -0.452837     -0.765049
O       1.99121      7.66988     11.50237        -1.086374      0.280501      0.190251
O      13.30895      7.64962     11.58130         0.212485     -0.149617      0.267283
O       1.92954     11.49186      2.53255        -0.770177     -0.126062      0.369136
O       2.00809     11.49311     15.88848        -0.690247     -0.994862     -0.673585
O      13.41810     11.56086      2.74416        -0.066689     -0.039561      0.002180
O      13.42974     11.46617     15.86385        -0.583172     -0.504857     -0.262862
O       1.95013     11.48774      7.14129        -0.976883      0.167627     -0.221496
O      13.48856     11.44773      7.17646        -0.557784     -0.282545     -0.135207
O       1.77595     11.51967     11.51683         0.459596     -1.062888     -0.711322
O      13.42174     11.49744     11.40868        -0.444258      0.730983      0.155925
O       5.67135      3.80614      2.87167         0.155680      0.265736     -0.413687
O       5.71758      3.78400     15.69544         0.337429      0.959871      0.173318
O       5.82247     15.26714      2.85678        -0.782067      0.953261     -0.356089
O       5.63372     15.32470     15.82041         0.438019     -0.288963     -0.498859
O       5.72559      3.84711      7.04971        -0.484750     -0.253818      0.554073
O       5.73128      0.00588      7.10118         0.202891     -0.854407      0.109623
O       5.70269      3.80930     11.27210        -0.448440     -0.468733      0.299946
O       5.76340     15.35979     11.37484        -0.079324     -0.029745      0.315118
O       5.56882      7.70766      2.73571         1.228552     -0.625217     -0.722083
O       5.72443      7.66955     15.83462         0.258478     -0.062155      0.420014
O       5.71989      7.66235      7.00901         0.291451      0.149044     -0.066537
O       5.73704      7.67951     11.35789        -0.225815     -0.088142      0.523374
O       5.74373     11.56398      2.62549         0.068232     -1.316084      0.743780
O       5.75468     11.49285     15.63944         0.088463     -0.095505      0.313003
O       5.67466     11.52608      7.25185        -0.077229     -0.437715     -0.378257
O       5.75662     11.53586     11.44831         0.175626     -0.435936      0.228772
O       9.52994      3.65609      2.85818         0.390417      0.927988     -0.357084
O       9.52464      3.80205     15.59183         0.058811      0.259652      0.649588
O       9.54033     15.33077      2.66065         0.038114      0.262185      0.134885
O       9.53076     15.26081     15.76321         0.555562      0.389956      0.349665
O       9.67765      3.88878      7.08813        -0.435772      0.196444     -0.094508
O       9.59249     15.30335      7.07353        -0.321247     -0.172873      0.070938
O       9.60199      3.78152     11.68121        -0.344468      0.299395     -0.898925
O       9.48554      0.03801     11.31871        -0.087803      0.123891      0.159522
O       9.57106      7.62249      2.73408         0.016017      0.449115     -0.082642
O       9.51499      7.57878     16.03242         0.751813      0.808388     -0.756042
O       9.46777      7.67817      7.18924        -0.176587     -0.555884     -0.363113
O       9.52391      7.54769     11.47457         0.034173      1.028047      0.060003
O       9.47864     11.47848      2.80298         0.399895     -0.529889     -0.187643
O       9.65627     11.46372     15.71430        -0.830192      0.583604      0.044054
O       9.68524     11.42561      7.07889        -0.483873      0.607010      0.220091
O       9.57307     11.43374     11.42557        -0.082701      0.721375     -0.044193
