  # total energy = -7867.76066167 
CRSYTAL
PRIMVEC
    15.010000000000000    0.0000000000000000    0.0000000000000000
     0.0000000000000000   15.010000000000000    0.0000000000000000
     0.0000000000000000    0.0000000000000000    16.400000000000000
PRESSURE
18.7588 19.031 11.7255 0.024619 0.042215 -0.055773
PRIMCOORD
320 1
Pb       3.73856      3.86274      4.08207        -0.118013     -1.030349      0.530873
Pb       3.79887      3.68171      0.08754         0.032186      0.377820     -0.718603
Pb       3.67292      0.02103      4.05649         0.485289     -0.203854      0.254048
Pb       3.61896     14.95420      0.02157         0.347749     -0.077632     -0.314106
Pb       0.02191      3.65329      4.01308        -0.336480      0.616496      0.833713
Pb       0.09705      3.73851      0.01209        -1.026624      0.150593     -0.125792
Pb       0.07900     14.97804      3.96002        -0.463157     -0.497354      1.045018
Pb      14.93065     14.96634      0.04879         0.697965      0.031282      0.109585
Pb       3.88941      3.76102      8.22070        -1.213116     -0.525855      0.241025
Pb       3.72128     14.90665      8.19456         0.139560      0.434168     -0.098319
Pb       0.04028      3.73654      8.23116        -0.137365     -0.229770     -0.068402
Pb       0.03170      0.01490      8.22740        -0.408460      0.295732     -0.184391
Pb       3.62341      3.79354     12.30378         0.656772     -0.425999      0.609528
Pb       3.78157      0.01063     12.28506         0.075600     -0.349603      0.751153
Pb      14.99160      3.63343     12.32915        -0.386885      0.436608      0.271545
Pb      14.96570     14.98412     12.37429        -0.108821     -0.067902     -0.423054
Pb       3.69733      7.43114      4.00042        -0.042538      0.891575      0.819566
Pb       3.69378      7.38182      0.02117         0.735883      0.736158      0.197246
Pb      14.92889      7.43278      4.08814        -0.087421      0.005152      0.069563
Pb       0.02530      7.50449     16.38011        -0.673728      0.051976      0.687720
Pb       3.72000      7.44424      8.13328        -0.192241      0.688682      0.330019
Pb      14.93418      7.44729      8.24467         0.021461      0.088674     -0.699186
Pb       3.78582      7.60859     12.28102         0.059249     -0.415976      0.453208
Pb       0.08380      7.46797     12.39104        -0.591980     -0.094565     -0.331954
Pb       3.69812     11.35616      4.07950         0.448652     -0.529784      0.608094
Pb       3.74664     11.24517     16.37287        -0.355544     -0.404797      0.114998
Pb      14.99068     11.31726      4.06780        -0.237186     -0.387645      0.246857
Pb      14.95913     11.19694     16.37973         0.099142     -0.134274      0.149426
Pb       3.81102     11.22397      8.20101        -0.415196     -0.350602     -0.707739
Pb      14.91998     11.24334      8.32583         0.140284     -0.227864     -0.644275
Pb       3.76686     11.33602     12.30028        -0.322603     -0.322755     -0.119598
Pb       0.00187     11.23516     12.32230        -0.004303      0.099758     -0.578758
Pb       7.51650      3.58664      4.08073        -0.221402      0.438998      0.318253
Pb       7.47097      3.77089     16.32730         0.100682      0.197398      0.852495
Pb       7.45132     14.97768      4.00613        -0.663572      0.305651      1.216320
Pb       7.43438      0.04401      0.04975        -0.072919     -0.516931     -0.136540
Pb       7.51794      3.76544      8.25200        -0.250493     -0.023609     -0.176916
Pb       7.58569     14.90748      8.22946        -1.048382      0.663907      0.015756
Pb       7.53622      3.68557     12.21764        -0.531953     -0.067459      0.776950
Pb       7.51482     14.95719     12.36722        -0.441518     -0.166131     -0.553890
Pb       7.45384      7.52425      4.02469         0.225490      0.273390      0.494404
Pb       7.46700      7.55139      0.06359        -0.179885     -0.150265     -0.190681
Pb       7.42960      7.59376      8.26649         0.377589     -0.437619     -0.144497
Pb       7.47452      7.37484     12.30093         0.418046      0.271570      0.126748
Pb       7.54374     11.33453      4.05324        -0.135877     -0.235136      0.842650
Pb       7.54578     11.21273      0.04247        -0.229178      0.312117      0.103978
Pb       7.48328     11.25484      8.27588         0.049282     -0.202153     -0.702499
Pb       7.49710     11.15902     12.39492         0.226286      0.415183     -0.571993
Pb      11.25657      3.71702      4.02266         0.085580      0.400015      0.947643
Pb      11.14840      3.65539     16.35201         0.658806      0.549670      0.122790
Pb      11.22275      0.03003      4.06288         0.508125     -0.252848      1.053090
Pb      11.08070     14.88877      0.06523         0.851005      0.727113     -0.052388
Pb      11.16020      3.75677      8.12003         0.578631     -0.002223      0.063363
Pb      11.22584      0.00051      8.21425         0.411243     -0.011335     -0.261698
Pb      11.31330      3.70934     12.36182        -0.420176      0.075867      0.893884
Pb      11.23291      0.03616     12.27135         0.169080     -0.758128     -0.008849
Pb      11.15198      7.43968      4.09105         0.710135      0.023172      0.165367
Pb      11.22923      7.53071     16.35557         0.039348     -0.323773      0.729319
Pb      11.17525      7.51226      8.26039         0.254163     -0.429297     -0.840499
Pb      11.33790      7.53450     12.31807        -0.627670     -0.522884      0.631910
Pb      11.32973     11.24193      4.12924        -0.554604      0.104304     -0.211186
Pb      11.28921     11.23307      0.06325        -0.278067     -0.107055      0.262751
Pb      11.18542     11.14513      8.20790         0.229087      0.802110      0.002842
Pb      11.25950     11.28723     12.31291         0.233801      0.335542     -0.316263
Ti       1.83194      1.91536      2.09057         0.458417     -1.343327     -0.217698
Ti       1.86840      1.86276     14.43024        -0.039238     -0.020636      0.885684
Ti       1.86424     13.04198      2.08416        -0.542776      0.983987     -0.626719
Ti       1.85014     13.12724     14.35915         0.139551     -0.002521      1.688251
Ti      13.12307      1.81251      2.12870        -0.325565      0.388082     -0.334091
Ti      13.13554      1.84575     14.52277        -0.162086      0.970254     -1.123649
Ti      13.07358     13.09757      2.11909         0.697043     -0.983585      0.767981
Ti      13.15201     13.13172     14.48533        -0.459596     -0.029837     -1.330872
Ti       1.88854      1.85230      6.17513        -0.763456      0.542407      0.225897
Ti       1.77472     13.12860      6.16584         0.666420     -0.480659      1.014674
Ti      13.11447      1.86604      6.24897         0.045968      0.143639      0.243029
Ti      13.10128     13.18396      6.20378        -0.173057     -0.727222      0.057861
Ti       1.83862      1.82351     10.38896         0.064738      0.293211     -0.874320
Ti       1.88629     13.12729     10.22529        -0.499455     -0.512445      2.097933
Ti      13.03535      1.88118     10.35726         1.412300     -0.363632      0.333940
Ti      13.15357     13.14927     10.29280        -0.528597     -0.587823      0.183232
Ti       1.90768      5.63315      2.11860        -2.000875      0.092178      0.793266
Ti       1.84582      5.59521     14.45963         0.480432     -0.081238      0.575265
Ti      13.09077      5.54759      2.09000         0.002110      1.429135     -0.940711
Ti      13.10856      5.63998     14.54653         0.196826     -1.756738      0.096242
Ti       1.87476      5.61294      6.23530        -0.739971     -0.347626      0.391814
Ti      13.08354      5.58632      6.23128        -0.459145      0.565494     -0.889964
Ti       1.85726      5.60005     10.36922        -0.903912     -0.104382     -0.974382
Ti      13.05558      5.56517     10.37851         0.917569      0.891890     -0.475637
Ti       1.79059      9.35111      2.16157         0.056908      0.077378      0.184669
Ti       1.82834      9.31973     14.45182         0.446803      1.481943      0.113402
Ti      13.06969      9.32299      2.15274         0.261552      0.078707     -0.335448
Ti      13.04108      9.30436     14.39253         1.507826      0.923218      1.178733
Ti       1.86351      9.42863      6.16307        -0.249964     -0.352012      0.445587
Ti      13.09406      9.39434      6.17278         0.125312     -0.006586      1.880885
Ti       1.93344      9.27820     10.31835        -0.907897      2.022754      0.235184
Ti      13.15788      9.31045     10.30182         0.071650      0.890652      0.670643
Ti       5.54441      1.90583      2.14683         0.683090     -1.330252      0.641734
Ti       5.62666      1.83508     14.48269        -0.663718      0.047546     -0.369344
Ti       5.57282     13.11922      2.09681         0.498993     -0.144342      0.947371
Ti       5.60601     13.04155     14.45234         0.212241      1.368205      0.273507
Ti       5.52031      1.81819      6.24011         0.396053     -0.522270      0.254686
Ti       5.59805     13.12383      6.25004        -0.172117     -0.227065     -0.628661
Ti       5.53455      1.81048     10.34397         1.479366     -0.986888      1.089089
Ti       5.61620     13.07596     10.29050         0.802489      0.186016      2.018579
Ti       5.66103      5.60271      2.20933         0.294816      0.260377     -1.976771
Ti       5.59545      5.60321     14.41351         0.262888     -0.159225      0.166465
Ti       5.60182      5.64652      6.16945         0.443560     -1.125727      0.490282
Ti       5.54378      5.51644     10.35454         1.713754      1.078692      0.404037
Ti       5.54727      9.38341      2.17403        -0.551495      0.401642     -1.130487
Ti       5.59726      9.30368     14.47253         0.317788      0.015501      1.146970
Ti       5.64283      9.29563      6.17574        -0.365260      2.517251      0.499704
Ti       5.69784      9.35776     10.38259        -0.278783     -0.160192     -0.757013
Ti       9.38469      1.86169      2.13923        -1.159987      0.787850      0.093216
Ti       9.32768      1.85023     14.42392         0.653593      0.845553      0.793837
Ti       9.35939     13.20057      2.24314         0.220062     -2.367200     -0.492454
Ti       9.41635     13.16465     14.43194        -1.411182     -0.834951     -0.230359
Ti       9.25275      1.89616      6.22725         0.968360     -0.524241     -0.596488
Ti       9.36137     13.22067      6.25274         0.115637     -1.053819     -0.137073
Ti       9.33205      1.80776     10.27636        -1.114105      0.118801      0.729654
Ti       9.35592     13.06184     10.27489         0.418914      0.229790      0.997024
Ti       9.32182      5.60094      2.10101         0.185836     -0.017546     -0.710576
Ti       9.33888      5.68343     14.53484         0.968100      0.175192     -0.622053
Ti       9.29990      5.61049      6.11831         0.550193      0.702833      0.877149
Ti       9.40100      5.58058     10.37711        -0.608640      0.553455      1.216121
Ti       9.27392      9.34509      2.14245         1.342336      1.699592      1.008822
Ti       9.36764      9.44026     14.39878        -0.274071     -0.487307      0.188086
Ti       9.35343      9.39841      6.21546         0.180319     -0.057550     -0.757805
Ti       9.45346      9.33095     10.32467        -0.486011      0.853419      1.514442
O       1.74532      1.99568      0.29497         0.614502     -0.583075      0.298121
O       1.71902      1.91974     12.66672         0.527377     -0.070824     -1.072011
O       1.81082     13.04568      0.29991         0.332509      0.364680      0.198237
O       1.83739     13.21112     12.63112         0.072504     -0.508244     -1.056701
O      13.26784      1.86113      0.35976        -0.499037      0.156897      0.356704
O      13.06436      1.90887     12.58637         0.289963     -0.361196      0.852165
O      13.00473     13.05732      0.34937         0.365072      0.329457     -1.398812
O      13.13141     13.22869     12.60392        -0.079149     -0.224928      1.421625
O       1.92634      1.87302      4.35740        -0.252114      0.099967      0.114706
O       1.88565     13.11899      4.38801        -0.034671      0.051804     -0.998596
O      13.08414      1.79974      4.49134         0.237538      0.269948     -1.486436
O      13.09127     13.07809      4.40515        -0.036830      0.292171     -0.462046
O       1.91931      1.76484      8.58215        -0.311344      0.219414      0.267001
O       1.80044     13.06926      8.45250        -0.142410      0.295788     -0.034710
O      13.06114      1.96312      8.61402         0.156759     -0.284595     -1.743010
O      13.17805     13.13489      8.47979        -0.031192      0.171502      0.486321
O       1.97172      5.61835      0.36103        -0.509535     -0.029929     -0.781062
O       1.95069      5.67143     12.69748        -0.229363     -0.071128     -1.041818
O      13.04897      5.55879      0.27575         0.342282      0.232223      1.384510
O      13.10406      5.67532     12.77685        -0.124819     -0.480429     -1.639995
O       1.82614      5.55889      4.43169         0.168299     -0.099257     -0.011001
O      13.09099      5.71182      4.38340        -0.121494     -0.800111      0.822521
O       1.90587      5.53397      8.53522        -0.243250      0.560246      0.436833
O      13.07990      5.63415      8.56824        -0.099398     -0.030850      0.068894
O       1.80315      9.36985      0.37816        -0.023659     -0.171338     -0.735168
O       1.90151      9.25336     12.64988        -0.143747      0.359086      0.125167
O      13.16621      9.42346      0.34916        -0.382026     -0.411343     -0.187118
O      13.06884      9.31522     12.64744         0.522673      0.310603     -0.983603
O       1.79528      9.43886      4.38021         0.358205     -0.281823      0.466198
O      13.07467      9.38021      4.41727        -0.148317      0.032742     -0.449116
O       1.82224      9.48171      8.55382         0.172379     -0.623927     -0.084219
O      13.11757      9.36559      8.51199         0.221514     -0.169909      0.143431
O       5.66770      1.95573      0.38384        -0.273555     -0.391098     -0.465662
O       5.69410      1.78446     12.71330         0.009344      0.288216     -0.510861
O       5.49205     13.09370      0.34979         0.312941     -0.002102     -0.994969
O       5.54671     13.17429     12.66320         0.380160     -0.588240      0.250915
O       5.49529      1.74913      4.47322        -0.078034      0.553674     -0.758697
O       5.50986     13.10330      4.44881         0.298771      0.209533     -0.265354
O       5.55095      1.74945      8.61343        -0.090626      0.482525     -1.564083
O       5.65633     13.07510      8.54832        -0.099456     -0.059770     -1.080556
O       5.70712      5.57469      0.36367        -0.302680      0.011727      1.160598
O       5.66810      5.59945     12.59423        -0.458647      0.164247      0.251092
O       5.57959      5.63453      4.38002        -0.069352      0.124780      0.300877
O       5.57424      5.54086      8.55416         0.048433      0.456479     -0.443189
O       5.53118      9.47897      0.35636         0.419827     -0.253465      0.101043
O       5.71610      9.26110     12.70569        -0.279035      0.277052     -1.032038
O       5.61044      9.30045      4.42359         0.044541     -0.040180     -1.023202
O       5.78083      9.35096      8.54679        -0.610454      0.042701      0.180856
O       9.34004      1.82541      0.35866         0.123907     -0.192147     -0.208453
O       9.33518      1.86456     12.65151         0.056820     -0.327185     -0.351039
O       9.51317     13.19340      0.44906        -0.582606     -0.182161     -0.757118
O       9.45111     13.08747     12.62887        -0.415308      0.090836      0.686509
O       9.21660      1.93724      4.38066         1.025766     -0.359542      0.773014
O       9.29054     13.26389      4.44515         0.320150     -0.279123     -0.266981
O       9.25040      1.92647      8.50147         0.315734     -0.176221     -0.369740
O       9.29776     13.13145      8.47993         0.210762      0.244551     -0.195639
O       9.28552      5.74234      0.27638         0.116800     -0.479340      0.765722
O       9.49571      5.73805     12.73409        -0.591780     -0.298900     -0.035651
O       9.42345      5.49743      4.35128        -0.477571      0.409427      0.077610
O       9.44796      5.61406      8.64598        -0.308810     -0.124651     -1.412930
O       9.29014      9.51756      0.39785         0.438765     -0.524465     -1.005520
O       9.39301      9.39743     12.60928        -0.114640      0.259096     -0.048289
O       9.23368      9.38326      4.39766         0.582289     -0.058957      0.187953
O       9.28560      9.34491      8.56686         0.140964     -0.087265     -1.082029
O       3.69602      1.97300      2.36988         0.220073      0.012283     -0.072034
O       3.75352      1.88232     14.74707        -0.052724      0.269623      0.277245
O       3.73639     13.06854      2.37537        -0.584126     -0.569618      0.184654
O       3.69487     13.15683     14.77151         0.635084     -0.344560     -0.121524
O      14.96548      1.72920      2.49991         0.490333      0.906444     -0.316251
O       0.01262      1.86376     14.75154        -0.117389      0.553992     -0.082742
O      14.97382     13.19175      2.39994         0.727248      0.056738      0.067682
O      14.99363     13.15949     14.75819        -0.066707     -0.190944     -0.110067
O       3.64420      1.66347      6.63529         1.127342      0.057577     -0.206773
O       3.71973     13.12644      6.56789        -0.565888      0.274811      0.124856
O       0.01635      2.00702      6.47927        -0.030995      0.182338      0.479642
O      14.93447     12.94672      6.39092         0.870217     -0.053431      0.464063
O       3.76074      1.92712     10.82269        -1.167855     -0.006168     -0.255763
O       3.75322     13.10689     10.72412        -0.599861     -0.628912     -0.733500
O      14.98334      1.79796     10.53088         0.205551     -0.003310      0.490648
O       0.01720     13.15052     10.71813         0.392142      0.483008     -0.656294
O       3.74403      5.57185      2.37204         0.265820     -0.014993      0.443343
O       3.76101      5.62819     14.81811        -0.528426     -0.034364     -0.336957
O      14.97825      5.66832      2.30853         0.472791     -0.195413      0.348380
O      14.98406      5.58188     14.80541         1.249386      0.152232     -0.075133
O       3.73988      5.84446      6.48846         0.184783     -1.012828     -0.156666
O      14.95084      5.52671      6.58898         0.866970      0.123160     -0.174331
O       3.75224      5.51557     10.55458        -0.778962      0.262471      0.640162
O      14.98017      5.71061     10.69583         0.529262      0.274676     -0.187933
O       3.69340      9.44253      2.40553        -0.259401     -0.102327      0.388487
O       3.74391      9.31268     14.78620        -0.574612      0.127307     -0.374580
O      14.96387      9.24865      2.47792        -0.326493      0.107920      0.004101
O      14.94593      9.29330     14.77616         0.418510      0.436792     -0.441526
O       3.73833      9.42938      6.61218         0.230539     -0.820834     -0.208385
O      14.95629      9.47437      6.55485        -0.277225     -0.061957     -0.239702
O       3.76393      9.45188     10.68178         0.239322     -0.208822     -0.060920
O       0.00959      9.31179     10.66847         0.167446     -0.445157     -0.002128
O       7.46887      1.79990      2.53731        -0.260987     -0.380182     -0.773545
O       7.47599      1.90585     14.87832         0.873228     -0.327967     -0.618944
O       7.46401     13.30757      2.37289         0.118504     -0.457812     -0.072043
O       7.47684     13.14434     14.83554         0.409628     -0.088111     -0.301350
O       7.40569      1.91179      6.48917         0.198778      0.224580      0.338115
O       7.44427     13.22113      6.57285         0.824073     -0.377942     -0.128433
O       7.44594      1.74724     10.66447         0.178530      0.295558      0.056402
O       7.53084     12.97538     10.75392        -1.204147      0.878295     -0.390430
O       7.49276      5.57888      2.57090        -0.094189      0.909889     -0.329969
O       7.48007      5.63766     14.71476         0.345623      0.309647     -0.186479
O       7.44733      5.58132      6.65025        -0.049323      0.062893     -0.596516
O       7.48808      5.70817     10.62795         0.438510     -0.243251     -0.080185
O       7.42597      9.28441      2.32402         0.559820     -0.399360      0.595823
O       7.52489      9.34879     14.79102        -0.785394      0.348382     -0.089117
O       7.54287      9.38047      6.48066        -1.417302     -0.205585      0.480531
O       7.54380      9.35393     10.60835         0.330907     -0.328999      0.488230
O      11.23517      1.97938      2.52015         0.423720     -0.525494     -0.713923
O      11.28262      1.78257     14.85997        -1.104100     -0.042023     -0.551320
O      11.27658     12.98771      2.47587        -0.977727      0.438643      0.335182
O      11.22902     13.21785     14.70422         0.934919      0.179872      0.196822
O      11.22001      1.79724      6.49146        -0.495380      0.140635      0.276943
O      11.23797     13.32274      6.50828        -0.907798      0.112372      0.123206
O      11.18992      1.78605     10.56518        -0.290063      0.698808      0.296300
O      11.21697     13.18644     10.63956         0.690390     -0.465643     -0.254690
O      11.14462      5.49569      2.38408         0.974568      0.028084      0.017924
O      11.29820      5.66312     14.89930        -2.148763     -0.229010     -0.385823
O      11.13972      5.68953      6.52029         0.653225     -0.682639      0.113270
O      11.23731      5.36823     10.79378         0.391132      0.703251     -0.718968
O      11.23113      9.55315      2.39630        -0.569979     -0.504887      0.184941
O      11.24173      9.42402     14.65260        -0.503208     -0.242858      0.643393
O      11.19593      9.36594      6.71777         0.402126     -0.229386     -0.816357
O      11.30951      9.57117     10.63627        -0.234879     -0.489826     -0.237196
O       1.88493      3.73634      2.43815        -0.784217      0.745956     -0.041839
O       1.89705      3.74567     14.72531         0.021638      0.602039      0.046066
O       1.97657     15.00931      2.29553        -0.330255     -0.070109      0.203106
O       1.89699      0.02505     14.70879        -0.270191     -0.721227      0.380724
O      13.19479      3.76464      2.45711        -0.107187     -1.856663      0.203911
O      13.08598      3.68931     14.80145         0.032847      0.415166     -0.176010
O      13.05429     14.94240      2.34305        -0.282722      1.459662      0.405786
O      13.32319      0.04992     14.83878        -1.225120     -1.854894     -0.459863
O       2.14832      3.71263      6.57452        -0.819998      0.663640     -0.449866
O       1.66287     14.97737      6.45424         0.214101      0.097410      0.177590
O      13.04423      3.74534      6.53106        -0.280925      0.173492      0.115205
O      13.20464      0.01493      6.50816         0.355164      0.148619      0.711027
O       1.80981      3.76352     10.70690         0.050960     -0.490034      0.039724
O       1.96664      0.00420     10.73509        -0.325031     -0.698120     -0.669943
O      13.31584      3.77835     10.63524        -0.697464     -1.223038      0.278885
O      13.10419     14.97940     10.53544         0.030941      0.972810      0.337515
O       1.80033      7.48662      2.59541         0.835502     -0.647360     -0.797415
O       1.80908      7.50493     14.77306         0.274222     -0.976478      0.184080
O      12.99050      7.44944      2.44881        -0.155634      0.158112     -0.164232
O      13.12026      7.45289     14.77460        -0.051326      1.848128      0.239788
O       1.79076      7.48443      6.49932        -0.160967      0.544353      0.319084
O      13.01822      7.45517      6.52153         0.675628      1.287474      0.169747
O       1.98266      7.45614     10.70073        -0.074921      0.110128     -0.416837
O      13.00801      7.47559     10.70710         0.059234      0.005174     -0.595494
O       1.76329     11.22809      2.42302        -0.019616      0.186264      0.036149
O       1.80823     11.25237     14.72413         0.176674     -0.657148     -0.422303
O      13.25303     11.21531      2.40117        -0.117193      0.214228      0.303528
O      13.09301     11.25983     14.74459         0.165220      0.025992     -0.436971
O       1.99085     11.26243      6.41930        -0.436235     -0.083279      0.281225
O      12.83947     11.34103      6.59612         0.770571     -1.810855     -0.642474
O       1.79709     11.26531     10.65946         0.312986     -0.139894      0.027136
O      13.25618     11.26077     10.64616        -0.203261     -0.284256     -0.073741
O       5.71495      3.72895      2.49059        -0.633151      0.190840      0.051307
O       5.66743      3.78325     14.85217        -0.520134     -0.545959     -0.671345
O       5.47055     14.98551      2.47791         0.182533      0.498770     -0.545508
O       5.61476     14.99142     14.76489         0.089359     -0.104811      0.458317
O       5.42643      3.69605      6.49458         0.161215      1.279774     -0.129401
O       5.55660     14.99356      6.57988         0.258993     -0.192189      0.331218
O       5.63845      3.66780     10.64894         0.373173      0.840334     -0.070057
O       5.53258     14.88731     10.65369         0.444088      1.165724     -0.070851
O       5.49844      7.48849      2.39020         0.440108     -0.294487      0.228078
O       5.59132      7.45181     14.93983         0.317768      0.354882     -0.742518
O       5.54781      7.51082      6.48380         0.847592     -1.062117      0.542790
O       5.61533      7.51502     10.66286        -0.347296     -0.993050     -0.229121
O       5.80313     11.21200      2.51939        -0.849474      1.191311     -0.417191
O       5.62566     11.20839     14.70934        -0.166094     -0.213055     -0.122625
O       5.62597     11.23569      6.49158         0.052371     -0.316431      0.411895
O       5.66136     11.20531     10.67567        -0.255604      0.357658      0.385732
O       9.20568      3.71420      2.29728         0.337602      0.406374      0.301614
O       9.41191      3.74740     14.65338         0.098393      0.111268      0.405182
O       9.45997     15.00683      2.45673         0.245903      1.147086      0.040814
O       9.33711      0.02241     14.77648        -0.239819     -0.594820     -0.076385
O       9.37793      3.73249      6.55212        -0.327248      0.741795      0.028926
O       9.30122      0.06089      6.57099        -0.078759      0.029360      0.228869
O       9.23863      3.70460     10.69061         0.472456     -0.234724     -0.461536
O       9.29438     14.96088     10.62698         0.163641      0.301438     -0.082439
O       9.44669      7.51249      2.45576        -0.425807     -0.628444     -0.208103
O       9.37087      7.59756     14.85714         0.167486     -0.494049     -0.367835
O       9.37410      7.50512      6.46904        -0.467337     -0.578150      0.052419
O       9.61312      7.50955     10.65718        -0.423057     -0.700340     -0.294415
O       9.31313     11.30418      2.48187        -0.647133     -0.376468      0.054606
O       9.38996     11.28922     14.85191        -0.089121      0.202243     -0.511529
O       9.37285     11.32465      6.50616         0.135346     -0.430821      0.069156
O       9.33468     11.24364     10.57588         0.319475     -0.521349      0.323898
