  # total energy = -7877.28548703 
CRSYTAL
PRIMVEC
    15.2000000000000000    0.0000000000000000    0.0000000000000000
     0.0000000000000000   15.2000000000000000    0.0000000000000000
     0.0000000000000000    0.0000000000000000    17.000000000000000
PRESSURE
8.43594 8.78518 5.0148 -0.089977 0.205714 0.068931
PRIMCOORD
320 1
Pb       3.89737      3.64455      4.16339        -0.223963      0.121509      0.085154
Pb       3.64244      3.65412     16.84917         0.097572      0.225221      0.269087
Pb       3.96232     14.98771      4.08150        -0.455301      0.157553      0.511351
Pb       3.60218     15.15624     16.88900         0.498856     -0.219902      0.070793
Pb      15.18902      3.47743      4.17286         0.265915      0.953235      0.411016
Pb      15.09294      3.91865     16.97487         0.167067     -0.582897      0.475449
Pb      15.12235     14.92459      4.21023         0.367919      0.531126      0.135507
Pb      15.04329      0.00766      0.11303        -0.060388      0.054134     -0.137042
Pb       3.49521      3.97273      8.53961         1.568832     -0.827883      0.583470
Pb       3.80678      0.02945      8.39590        -0.062483     -0.276324     -0.061647
Pb       0.01088      3.80651      8.44687        -0.422979     -0.058423     -0.192703
Pb       0.07620      0.09171      8.19759        -0.181598     -0.752728      0.606796
Pb       3.72810      3.79449     12.69744         0.062856      0.100586      0.807803
Pb       3.74579      0.06462     12.74365        -0.063095     -0.005029      0.086543
Pb      15.01985      4.00998     12.74207         0.739283     -0.837575      0.080799
Pb      15.07189      0.05284     12.69237        -0.070972      0.128182      0.029589
Pb       3.89295      7.44837      4.14479        -0.396280      0.375157     -0.014120
Pb       3.60728      7.49322     16.79571         0.875055      0.369370      1.114420
Pb      15.18467      7.47928      4.29824         1.133348     -0.211361     -0.545606
Pb      14.97192      7.51094      0.12546         0.702211      0.391501      0.413879
Pb       3.81378      7.53812      8.57255        -0.078500      0.616372     -0.310088
Pb       0.10788      7.67103      8.47600         0.250419     -0.474963     -0.409140
Pb       3.78150      7.74775     12.83368        -0.011647     -0.285322      0.113179
Pb      15.19523      7.75316     12.83801         0.529959     -0.214798     -0.143511
Pb       4.06656     11.23387      4.13567        -0.733790     -0.249099      0.122855
Pb       3.68502     11.39723     16.80380         0.450476     -0.301131      0.372644
Pb       0.14387     11.22189      4.20382         0.247248      0.736049      0.025241
Pb      15.02992     11.35603      0.00419         0.279006      0.113888      0.705408
Pb       3.81243     11.41867      8.48236         0.266597     -0.287121     -0.278740
Pb       0.22106     11.41919      8.34331        -0.525156      0.490220      0.200172
Pb       3.88760     11.60492     12.66268        -0.720065     -1.277583      0.414039
Pb       0.05305     11.54926     12.80693        -0.247062     -0.435894     -0.352820
Pb       7.59623      3.84535      4.38629         0.076451     -0.674321     -0.326159
Pb       7.54279      3.76257     16.88880         0.713075     -0.133339      0.127944
Pb       7.59308     15.13143      4.23147         0.050081      0.350071     -0.070966
Pb       7.54024     15.19934     16.84607        -0.158350     -0.256775      0.724375
Pb       7.29259      3.72434      8.76159         0.449906      0.441984     -0.438185
Pb       7.56777      0.05684      8.66023         0.086031     -0.339425     -0.658736
Pb       7.66626      3.80770     12.72066        -0.250753     -0.094449     -0.116189
Pb       7.48407     14.99843     12.75185         0.600834      0.986447      0.252001
Pb       7.51256      7.52494      4.07214        -0.153988      0.371726      0.259000
Pb       7.77931      7.53435      0.03835        -0.624450      0.393662     -0.298111
Pb       7.48913      7.52124      8.57168         0.393293      0.460356      0.347867
Pb       7.58133      7.64272     12.69222        -0.343544      0.024030     -0.005597
Pb       7.64675     11.48798      4.30377        -0.074881     -0.775517     -0.307696
Pb       7.41434     11.35247     16.95547         0.685572     -0.689251      0.236703
Pb       7.69579     11.32974      8.64850        -0.462374     -0.317267     -0.525899
Pb       7.69949     11.54081     12.77155        -0.364634     -0.803150      0.440302
Pb      11.24066      3.79528      4.42335        -0.079600      0.098059     -0.273059
Pb      11.26921      3.79844     16.92981         0.258970      0.246643      0.394495
Pb      11.29907     15.16133      4.27328        -0.327511      0.038206      0.091321
Pb      11.30255      0.16401      0.08791         0.212844     -0.693146     -0.108673
Pb      11.35851      3.84016      8.49836         0.219411     -0.054948      0.290303
Pb      11.53062     15.17556      8.51876        -0.361346      0.154479     -0.444552
Pb      11.40875      3.82908     12.60110        -0.063201     -0.396000      0.363948
Pb      11.40387      0.00400     12.60180        -0.097346      0.212122      0.448588
Pb      11.27141      7.40864      4.32094        -0.353675      0.393114      0.096234
Pb      11.46208      7.66217      0.05369        -0.512575     -0.300321     -0.076959
Pb      11.46259      7.61777      8.58567        -0.249980     -0.068455     -0.702563
Pb      11.56696      7.79124     12.80733        -0.439719     -0.700743      0.100953
Pb      11.36131     11.44208      4.28408        -0.560872     -0.504817     -0.206876
Pb      11.35530     11.31116      0.06657         0.078935     -0.048013     -0.201613
Pb      11.48745     11.32754      8.33272        -0.484682     -0.142564      0.486085
Pb      11.47200     11.44448     12.63922         0.142809      0.661793      1.444800
Ti       1.90196      1.68480      2.25194         0.044872      1.169372      0.845006
Ti       1.70366      1.81605     14.92528         0.806402      0.744644      0.836959
Ti       1.85931     13.19376      2.17077         0.340592     -0.937336      0.668649
Ti       1.67313     13.30544     14.97668         1.793398     -0.190292     -0.092927
Ti      13.20194      1.84039      2.33881         0.667095      0.170364     -0.845328
Ti      13.21564      1.88342     15.02016         0.069251     -0.169811     -0.466848
Ti      13.17481     13.20760      2.28590         1.159211      0.626273      0.523705
Ti      13.17798     13.35329     15.05989        -0.099425     -0.892579      0.487860
Ti       2.01061      1.92681      6.35484        -0.309900     -1.412449      0.361385
Ti       1.93697     13.33126      6.32413         0.165356     -0.970189      0.279941
Ti      13.23996      1.89900      6.41969         0.923771     -0.365636      1.506467
Ti      13.19508     13.22601      6.37836         1.321048      0.671034      1.517061
Ti       1.89478      1.82118     10.69685        -0.722310      1.629242      0.257511
Ti       1.75968     13.36435     10.70029         0.786813     -0.557492     -0.806447
Ti      13.34557      1.94906     10.67467        -0.396095     -0.434008      1.022035
Ti      13.28345     13.23962     10.62835        -0.100311      1.002866     -0.840227
Ti       1.91087      5.50600      2.21973        -0.086111      1.381983      1.462146
Ti       1.82870      5.66119     15.04192         0.957343     -0.561696     -1.606078
Ti      13.27557      5.65394      2.37636         0.207772     -0.654307     -0.776035
Ti      13.28177      5.67309     14.98482        -0.531338      0.601774     -1.378373
Ti       1.93713      5.66841      6.38100         0.212569      0.979011     -1.063353
Ti      13.33408      5.70479      6.50127        -0.313472      0.039620      0.613160
Ti       1.89269      5.70848     10.88089        -0.062099      0.556509      0.460213
Ti      13.34088      5.75822     10.75016        -0.690023     -0.623135     -0.851104
Ti       1.87111      9.38176      2.16485         0.874834     -0.617661      2.007329
Ti       1.78467      9.50141     15.09752         1.151535     -0.260672      0.206764
Ti      13.24873      9.41009      2.55011        -0.057454      0.441641     -1.989394
Ti      13.28888      9.51636     15.06383        -0.792085      0.011071     -0.742949
Ti       1.97996      9.53012      6.38484         1.321916     -0.695123     -0.550053
Ti      13.39554      9.48317      6.39695        -0.886889     -0.641714      2.066079
Ti       1.93342      9.55592     10.78544         0.643110      0.089987      0.398949
Ti      13.41072      9.49346     10.70205         0.125173      0.835404      0.854095
Ti       5.69436      1.79573      2.09179         0.619193     -1.411004      0.752638
Ti       5.67652      1.83624     15.00867        -0.240151      0.085339     -1.265641
Ti       5.72572     13.16265      2.11518        -0.004121     -0.006675     -1.020156
Ti       5.65563     13.19439     14.98663        -0.305985      0.754693      0.824303
Ti       5.72168      1.88619      6.50880        -0.048772      0.470838      0.802384
Ti       5.71633     13.23351      6.52308        -0.481796     -0.270500      0.498116
Ti       5.66274      1.90317     10.76143        -0.026176     -0.579029      0.836929
Ti       5.59000     13.32236     10.71121         1.009519     -0.720971     -1.496190
Ti       5.70289      5.48581      2.04880        -0.463966      1.103836      0.864735
Ti       5.70665      5.63401     15.09361        -0.475537      0.707998     -1.934990
Ti       5.69960      5.66830      6.58527        -0.201174     -0.527963      0.238536
Ti       5.63177      5.71149     10.95224         0.919229      0.293153      0.099968
Ti       5.61172      9.30110      1.98034         0.840965      0.390120      0.279737
Ti       5.66949      9.34988     14.90436         0.164025      0.962876      0.352954
Ti       5.74500      9.43565      6.52890        -0.407868      0.493758     -0.262177
Ti       5.68618      9.49873     10.78325        -0.336294     -0.358827      0.951290
Ti       9.45088      1.90498      2.27481        -0.731245     -0.149734      1.850481
Ti       9.51192      1.85340     14.89095        -0.272640      0.115624     -0.824966
Ti       9.46826     13.24523      2.12785        -1.102468      0.033280      0.610086
Ti       9.46642     13.24061     15.19041         0.477834      0.117548     -1.620892
Ti       9.46419      1.90143      6.59775         0.209108     -0.251490      1.098702
Ti       9.38376     13.26439      6.61292         0.286144      0.791641     -0.248912
Ti       9.46530      1.88658     10.73075         0.519757      0.610393      0.019319
Ti       9.50035     13.27215     10.73737        -0.275423      1.234286     -0.904939
Ti       9.47482      5.61604      2.23263         0.020863     -0.279394      0.743009
Ti       9.54329      5.71892     14.86337         0.095898     -0.008931      1.634660
Ti       9.45118      5.70479      6.66690         0.826171      0.018280     -0.776690
Ti       9.59913      5.76766     10.76497        -0.806638     -0.893960      0.217354
Ti       9.45636      9.41164      2.25966        -0.906465      0.094007     -0.418680
Ti       9.47255      9.47029     14.92283        -0.964188     -0.492489      1.220975
Ti       9.50305      9.41722      6.43840        -0.022304     -0.191668      0.208293
Ti       9.57885      9.58059     10.84679        -1.142500     -1.238245     -1.749609
O       1.84860      1.85413      0.48456        -0.255253     -0.644858     -0.199361
O       1.81959      1.77518     13.19311        -0.031265      0.126840     -0.650486
O       1.77903     13.37785      0.41188         0.350208     -0.153892     -0.309093
O       1.72609     13.37232     13.19434         0.223002     -0.012852     -0.685377
O      13.20017      1.74450      0.50530         0.277795      0.455485      0.461654
O      13.18816      1.83502     13.25009         0.230408     -0.061452     -0.308378
O      13.08023     13.29366      0.54735         0.573637     -0.356283     -0.894530
O      13.27483     13.22598     13.31765        -0.123108      0.274020     -0.929399
O       1.98534      1.86678      4.62080        -0.093968      0.065779     -0.633729
O       1.99590     13.19357      4.57319        -0.176588     -0.070598     -0.473861
O      13.39815      1.85487      4.69193        -0.763353     -0.000424     -1.096730
O      13.26472     13.38598      4.63207        -0.717300     -0.658114     -0.528821
O       1.93212      1.74880      8.93070        -0.149035      0.481211     -0.603781
O       1.82743     13.39442      8.91152        -0.050652     -0.341197      0.353766
O      13.45523      1.88002      8.95045        -0.017284      0.020229     -1.266230
O      13.36681     13.30741      8.85171        -0.328976     -0.129834      0.286056
O       1.83020      5.62974      0.47728         0.370741     -0.320753     -1.670639
O       1.87732      5.53637     13.23963        -0.450082      0.328996     -0.254153
O      13.37138      5.77177      0.54619        -0.583038     -0.523004     -0.534062
O      13.17414      5.76495     13.13208         0.588465     -0.288144      1.275570
O       2.05969      5.67169      4.60421        -0.655059     -0.307339      0.731437
O      13.36029      5.65870      4.71974        -0.219491      0.268859     -0.393898
O       1.94437      5.81353      9.09458        -0.217995     -0.334625     -0.586595
O      13.33710      5.65621      8.96248         0.579842      0.456543     -0.372787
O       1.88784      9.23236      0.44858        -0.159654      0.680350     -2.120632
O       1.77974      9.47269     13.37765        -0.618367      0.128705     -1.662467
O      13.31535      9.47407      0.69752        -0.267162     -0.007048     -0.369374
O      13.39371      9.45497     13.27614        -0.198951      0.418411     -0.300772
O       1.96124      9.51266      4.61028         0.024359      0.097262      0.365904
O      13.29686      9.44436      4.68699         0.048685     -0.186151     -2.107195
O       1.92998      9.62316      9.03356        -0.141794     -0.444330     -1.056158
O      13.41316      9.44613      8.97497         0.014025      0.283775     -0.690037
O       5.77034      1.70483      0.33030        -0.353432      0.626258     -0.530197
O       5.68504      1.88149     13.20475        -0.280880     -0.255397      0.514736
O       5.80487     13.20383      0.29749        -0.393485      0.010926      0.784798
O       5.56621     13.31200     13.19513         0.636094     -0.005657     -0.669977
O       5.85690      2.00753      4.78346        -0.362034      0.056242     -1.019018
O       5.89131     13.02556      4.73976        -0.535267      0.522579     -0.422624
O       5.69466      1.71684      8.99155         0.053717      0.644111     -0.300639
O       5.60193     13.28569      8.87867         0.459888      0.239225      1.203211
O       5.71524      5.64868      0.31234        -0.174974     -0.379466     -0.599888
O       5.68575      5.65293     13.24855         0.218392     -0.287387      0.405134
O       5.79820      5.61500      4.83629        -0.143098     -0.110320     -0.339591
O       5.62852      5.72157      9.16542        -0.024448      0.007958     -0.929787
O       5.48008      9.31147      0.22377         0.449501      0.413559      0.095551
O       5.71215      9.46446     13.10566         0.252481     -0.008821      0.327699
O       5.72940      9.43200      4.76001         0.224208      0.026083     -0.575243
O       5.55631      9.37414      9.04811         0.236602      0.133897     -1.477102
O       9.51156      2.05504      0.57787        -0.032657     -0.362940     -2.015611
O       9.56421      1.87455     13.09401        -0.128042     -0.336906      0.732807
O       9.38079     13.09765      0.37226         0.235781      0.428221     -0.230589
O       9.35989     13.40432     13.36510         0.602053     -0.311405     -0.202067
O       9.46444      1.88350      4.85006         0.186251     -0.063466     -1.131785
O       9.31015     13.34850      4.79608         0.460758     -0.364343      0.217055
O       9.53323      2.01404      8.95914        -0.451720     -0.094409     -0.530895
O       9.42926     13.16367      8.96876         0.108601      0.033604     -0.449680
O       9.53084      5.57760      0.50172        -0.153658      0.078199     -1.195011
O       9.76476      5.72974     13.14077        -0.692957      0.216059     -0.395940
O       9.60431      5.76283      4.79501        -0.495543     -0.297392      0.664380
O       9.64237      5.63260      9.00138        -0.322397     -0.078681     -0.770763
O       9.39050      9.26498      0.46141         0.931205      0.531888      0.100612
O       9.46536      9.40169     13.17433         0.030226      0.070651     -1.591598
O       9.50930      9.28239      4.64263        -0.142271      0.374676      0.364036
O       9.55432      9.67534      9.02807         0.295942     -0.084324      0.792999
O       3.80796      1.71196      2.65789         0.274844      0.066943     -0.566087
O       3.64808      1.83758     15.35355         1.072199     -0.446960     -0.325465
O       3.85654     13.20873      2.49296        -0.265341     -0.145685     -0.082962
O       3.74623     13.29957     15.32710         0.106882      0.009244     -0.055088
O      15.16337      1.70798      2.71625         0.588454      0.253002     -0.811887
O      15.07426      1.77624     15.36451         0.154706     -0.080821      0.285121
O      15.16287     13.08162      2.46723         0.149114      0.849833      0.405364
O      15.10588     13.20696     15.34589        -1.402355      0.301933      0.541210
O       3.84503      1.79256      6.79396        -0.366474      0.713649      0.134447
O       3.85458     13.23282      6.71744        -0.069228      0.147478      0.331012
O       0.08575      1.86987      6.70984        -0.479839      0.341399      0.174931
O       0.02199     13.21939      6.59837        -0.421455      0.218457      0.314594
O       3.73613      1.92953     11.17944         0.621053     -0.675344     -0.167227
O       3.78496     13.32414     10.97632        -0.461981      0.552721      0.550875
O       0.01083      1.94262     11.11144        -0.325451     -0.452140      0.118556
O      15.09790     13.35374     11.07248         1.238293      0.128460      0.287135
O       3.87405      5.64066      2.66079         0.148941     -0.794158     -0.780657
O       3.70573      5.60339     15.33100         0.984770     -0.455842      0.326720
O       0.03421      5.67463      2.36450         0.040472     -0.540184      1.361301
O      15.17932      5.70704     15.31183        -1.247058     -0.277604      0.513954
O       3.77521      5.62341      6.92770         0.417171      0.697281      0.034690
O       0.09144      5.77691      6.79771        -0.303376     -0.653175      0.386137
O       3.80620      5.81705     11.29313        -1.265145     -0.735098     -0.291840
O      15.17858      5.77131     11.20680         0.554670      0.053966     -0.079662
O       3.86025      9.30304      2.54312        -0.816436      0.566402      0.185599
O       3.73030      9.52785     15.11696        -0.068477      0.025355      0.911618
O       0.02667      9.48761      2.67221        -0.716833     -0.362059      0.052774
O      15.09904      9.51018     15.48101         0.654154     -0.096640      0.106158
O       3.86774      9.50908      6.79222        -0.981838      0.085989      0.397947
O       0.08297      9.65802      6.68764        -0.136163     -0.567502      0.411363
O       3.79169      9.53923     11.22254        -0.802839     -0.203057      0.118732
O       0.06931      9.59134     11.19126        -1.211904     -0.369133     -0.101134
O       7.58478      1.93686      2.72726        -0.280989     -0.291718     -0.652112
O       7.66463      1.91899     15.30434        -0.879513     -0.212577      0.003841
O       7.59938     13.21981      2.61490         0.135949      0.001793     -0.175284
O       7.58692     13.24065     15.31215        -0.884231      0.239062      0.174129
O       7.63347      1.98772      6.98000        -0.069703      0.041032      0.279472
O       7.51020     13.32954      6.97173         1.749345     -0.145163      0.282449
O       7.57763      1.98680     11.13962        -0.347438      0.014685     -0.342423
O       7.61617     13.20777     11.18902        -1.058111      0.259545     -0.453585
O       7.53088      5.49823      2.63400         0.217786      0.057624     -0.319185
O       7.60493      5.70789     15.35889         0.592087     -0.381825     -0.507913
O       7.62804      5.54600      7.07721        -0.453901      0.483095     -0.269122
O       7.62522      5.73869     11.14985         0.134031     -0.407760      0.080309
O       7.53696      9.33486      2.35404         0.313965     -0.010956      0.664881
O       7.54124      9.23708     15.32698         0.343857      0.484004     -0.088913
O       7.66197      9.46406      6.86133         0.282029     -0.433857      0.436422
O       7.53889      9.49760     10.95875         2.095335      0.177989      0.630723
O      11.39624      1.83175      2.67676        -0.578911     -0.117320      0.292647
O      11.35198      1.85800     15.38496        -0.384556      0.380380      0.313924
O      11.30734     13.21698      2.64479        -0.284697      0.401932      0.259818
O      11.36729     13.25655     15.54059        -1.124089     -0.771002     -0.305753
O      11.44476      1.90451      6.89688        -0.030323     -0.295342     -0.083240
O      11.36321     13.30209      6.94863         0.142766     -0.368723     -0.622711
O      11.39871      1.90911     10.92840         0.296013     -0.166849      0.498157
O      11.37733     13.25538     11.12135         0.268564      0.320439     -0.254686
O      11.36922      5.72829      2.58160         0.839346     -0.348034      0.314789
O      11.48399      5.69454     15.44500        -1.215283     -0.102302     -0.181089
O      11.45345      5.83268      6.95072         0.764503     -0.202247     -0.346798
O      11.46139      5.59576     11.06180        -0.159203      0.728254     -0.131097
O      11.30679      9.36617      2.54918         1.389698      0.136908      0.573574
O      11.31466      9.47276     15.29751         1.066140      0.013567      0.522223
O      11.45642      9.42961      6.77813        -0.325986      0.030454      0.300893
O      11.45505      9.67853     11.25913         0.503539     -1.095292     -1.055566
O       1.96871      3.63550      2.61452        -0.232296      0.244372     -0.331744
O       1.84134      3.73380     15.35185        -0.733879     -0.597662      0.248758
O       1.95483     15.05235      2.66804        -0.409483     -0.037193     -0.415975
O       1.72575     15.12426     15.30532         0.407345      1.094929      0.545571
O      13.29778      3.78085      2.66305         0.152031     -0.883382     -0.133221
O      13.31359      3.76741     15.27340        -0.008220      0.464139      0.330779
O      13.30387     15.12703      2.63495        -0.333030     -0.251275     -0.006656
O      13.01963     15.16190     15.39465         1.182215      0.469268      0.111592
O       2.05440      3.75215      6.80720        -1.139196      0.866664     -0.078458
O       2.03701     15.15264      6.68755        -0.594672      0.546892      0.177781
O      13.35403      3.79311      6.81934         0.176869      0.262847      0.083616
O      13.23219     15.15151      6.74626         0.357126      0.336809      0.185387
O       1.85246      3.80889     10.98380         0.306047      0.174713      0.270806
O       1.94796      0.02268     11.01363        -0.334781     -0.972895      0.769904
O      13.33705      3.86242     10.99435         0.252841     -1.201614      0.496743
O      13.22393     15.18655     11.10893         0.249365      0.133811     -0.259156
O       1.94753      7.51799      2.60118        -0.286051     -0.577004      0.202094
O       1.87930      7.52003     15.27368        -0.492343      0.815538      0.024654
O      13.46918      7.53552      2.61645        -0.633967      0.303543      0.653444
O      13.26123      7.61852     15.27645         0.095331     -0.524457      0.652998
O       1.99669      7.61085      6.72351        -0.462866      0.024381      0.458925
O      13.42618      7.63714      6.90287         0.286885     -0.291622     -0.162392
O       1.90343      7.66870     11.14849        -0.317450     -0.282916      0.186142
O      13.27007      7.60920     11.06059         0.000821      1.439948      0.183410
O       1.91038     11.25365      2.41567         0.450471      1.210476      0.105297
O       1.84786     11.43628     15.31586        -0.401587     -0.710494      0.463996
O      13.24756     11.37969      2.81640        -0.496993     -0.744949     -0.265440
O      13.21601     11.35913     15.51139        -0.130635      0.332509     -0.046243
O       2.02716     11.42960      6.85952        -0.299779     -0.220248     -0.086593
O      13.23214     11.34033      6.74966         0.160325      0.789949     -0.205098
O       1.96498     11.50408     11.07350        -0.611392     -0.174279      0.383924
O      13.38086     11.44417     11.06739        -0.374056     -0.963029      0.198542
O       5.62451      3.55707      2.41995        -0.192903      2.818532      0.198250
O       5.70737      3.72633     15.32308        -0.315605     -0.087452      0.351215
O       5.70277     15.07394      2.40481         0.428849      0.093545      0.736689
O       5.76869     15.16106     15.27981        -0.316937     -0.164624     -0.082702
O       5.66868      3.81366      7.01125        -0.111362     -0.284971      0.225964
O       5.71624      0.05505      6.71702         0.368226     -1.822961      0.373829
O       5.57651      3.73027     11.08318         0.490602      1.127599      0.113748
O       5.80593      0.00229     11.03513        -0.523815     -0.761075      0.378928
O       5.73534      7.43813      2.44969         0.066021     -0.349208      0.179765
O       5.56606      7.55579     15.18828        -0.263530     -1.213818      0.169119
O       5.67166      7.57006      6.94432         0.451471     -1.102300      0.288396
O       5.68726      7.58829     11.16527        -0.023233      0.129767      0.322387
O       5.70793     11.26317      2.45574         0.268980      0.058330     -0.183844
O       5.74991     11.34058     15.37002        -0.599223     -0.062102     -0.732246
O       5.82315     11.26810      6.91118        -0.315362      1.682133      0.248021
O       5.59111     11.36053     11.09591         0.563835      1.802570     -0.157509
O       9.54618      3.76163      2.65724         0.289888      0.106068      0.814334
O       9.53031      3.77240     15.30614         0.009088      0.489977     -0.221504
O       9.39614      0.00200      2.68088         0.667391     -0.910126     -0.545685
O       9.48553     15.18591     15.51607         0.176216      0.361492     -0.577611
O       9.79063      3.85503      6.69979        -0.559991     -0.608622      0.389083
O       9.55746     15.17224      6.88875        -0.276515      0.313330      0.440322
O       9.52964      3.81384     11.17205        -0.291761     -0.046415     -0.064174
O       9.33952     15.18524     10.90017         0.512493     -0.060938      0.552510
O       9.49521      7.43131      2.64210        -0.602590      1.288999     -0.138996
O       9.51929      7.54024     15.40274         0.398153     -0.688717     -0.388501
O       9.53389      7.55840      7.03366        -0.291936      0.756994     -0.108078
O       9.59677      7.62941     10.90520         0.154560      0.760781      0.723855
O       9.47768     11.36356      2.48531         0.206762     -0.373750      0.543893
O       9.31169     11.28090     15.17722         0.414766      0.949485      0.750719
O       9.53689     11.36373      6.74581        -0.120453     -0.236951      0.178674
O       9.51040     11.47507     11.16755        -0.211215     -1.491025      0.641333
