  # total energy = -7881.47944760 
CRSYTAL
PRIMVEC
    15.3600000000000000    0.0000000000000000    0.0000000000000000
     0.0000000000000000   15.3600000000000000    0.0000000000000000
     0.0000000000000000    0.0000000000000000    17.440000000000000
PRESSURE
0.544897 0.74934 0.537518 -0.05915 -0.245746 -0.04793
PRIMCOORD
320 1
Pb       3.93548      3.79893      4.39239        -0.072725      0.101489     -0.525001
Pb       3.88762      3.81253      0.03067         0.254177      0.103942     -0.446238
Pb       3.76981      0.03125      4.34441         0.450847     -0.006590      0.141136
Pb       3.78732     15.28656     17.35440        -0.185412      0.317653     -0.621270
Pb       0.08382      3.80064      4.36380        -0.083920     -0.145458     -0.499609
Pb       0.05867      3.86678      0.01241        -0.607255      0.169186     -0.640131
Pb       0.10320      0.03724      4.37089        -0.546357     -0.020014      0.061069
Pb      15.23798      0.07383     17.36893         0.368950     -0.280720     -0.354624
Pb       3.74850      3.80685      8.69595         0.339091      0.152665     -0.283506
Pb       3.76583     15.30940      8.65436         0.374094      0.052032     -0.336570
Pb      15.10347      3.96174      8.64650         0.751503     -0.525549      0.330692
Pb      15.23238     15.28750      8.74177         0.008082      0.237266     -0.388847
Pb       3.94142      3.63892     13.06375        -0.202021      0.463186     -0.810204
Pb       3.78759      0.01087     12.93852        -0.192478     -0.157847      0.039543
Pb       0.03220      3.77677     13.02024        -0.289740     -0.038040      0.136870
Pb      15.27944     15.20909     13.05860         0.231016      0.519953     -0.598081
Pb       3.83784      7.67664      4.31981         0.404413     -0.085691     -0.178278
Pb       3.80965      7.63890      0.03042        -0.083990     -0.281176     -0.560495
Pb       0.13458      7.77041      4.29148        -0.311090     -0.784492      0.674469
Pb      15.34884      7.70396      0.05388         0.148478     -0.567143     -0.766212
Pb       3.76339      7.70013      8.62967        -0.017231     -0.192068     -0.061615
Pb      15.27574      7.63260      8.64275         0.024886      0.432457      0.095990
Pb       3.89475      7.56613     13.06514        -0.327371      0.170537     -0.664977
Pb      15.33059      7.65989     13.07524         0.251320     -0.090484      0.059935
Pb       3.81151     11.54266      4.29776         0.259570     -0.025577      0.029034
Pb       3.91588     11.59130     17.42399        -0.319765     -0.093258     -0.696522
Pb       0.10726     11.55794      4.31094        -0.703072     -0.183331     -0.142921
Pb      15.24895     11.49641     17.38624         0.073042      0.110169     -0.246464
Pb       3.86539     11.47377      8.65655        -0.240567      0.339457      0.179867
Pb       0.01794     11.47980      8.72808        -0.919984     -0.106246     -0.303086
Pb       3.91997     11.38499     13.04978        -0.625121      0.363232     -0.132837
Pb       0.17170     11.48853     13.02042         0.012488      0.374060     -0.156719
Pb       7.66261      3.79614      4.22018         0.255316     -0.116070     -0.345527
Pb       7.70899      3.82194      0.05364        -0.552190     -0.222354     -0.074031
Pb       7.65417     15.32544      4.42127         0.267942      0.040535     -0.756008
Pb       7.50911      0.02208     17.34348         0.462402      0.134777      0.067045
Pb       7.50134      3.91731      8.70686         0.274607     -0.620651     -0.416837
Pb       7.66984      0.00279      8.78575        -0.590262      0.559072     -0.899737
Pb       7.85234      3.89581     13.01646        -1.102876     -0.226003     -0.085296
Pb       7.70022      0.09312     12.96622        -0.186113      0.151499      0.253801
Pb       7.72834      7.57741      4.32967         0.037497     -0.122289     -0.178752
Pb       7.58008      7.74606      0.02676        -0.157450     -0.177481     -0.573941
Pb       7.73283      7.60375      8.72736         0.417178      0.360955     -0.534958
Pb       7.71962      7.72299     13.09859        -0.804047     -0.353611     -0.310434
Pb       7.64028     11.43265      4.35673         0.013638      0.476024     -0.665950
Pb       7.65408     11.61806     17.29278        -0.210116     -0.471478     -0.419463
Pb       7.67200     11.58878      8.67351         0.279273     -0.405909     -0.220917
Pb       7.78094     11.59748     12.93340        -0.742368     -1.173163      1.508538
Pb      11.47000      3.75097      4.29745        -0.235536     -0.002076     -0.411776
Pb      11.67856      3.88988      0.16825        -0.138067     -0.306754     -1.327199
Pb      11.63987     15.29929      4.38302        -0.627209     -0.287124     -0.689336
Pb      11.23545     15.25765      0.03871         0.628935      0.484342     -0.135606
Pb      11.47952      3.86588      8.63172        -0.291532     -0.343268      0.448475
Pb      11.45402      0.05970      8.75575         0.655947     -0.014343     -0.587345
Pb      11.52357      3.72959     13.00742         0.230886      0.347908      0.312629
Pb      11.46925     15.28807     13.10954         0.135857      0.402118     -0.721697
Pb      11.58048      7.51841      4.36821        -0.896321      0.675798     -0.295140
Pb      11.44439      7.72645     17.43095         0.067295     -0.311761     -0.820119
Pb      11.61955      7.71689      8.66070        -1.150056     -0.198596      0.343416
Pb      11.35018      7.56398     13.15886         0.461466      0.100349     -0.234329
Pb      11.51184     11.44588      4.26748         0.014529      0.593122     -0.744120
Pb      11.40487     11.46326     17.35920        -0.078466     -0.301333     -0.232410
Pb      11.47738     11.41475      8.65483         0.457610      0.068147     -0.278044
Pb      11.58167     11.49284     13.04192        -0.410130      0.057912     -0.053989
Ti       1.91087      1.89218      2.25574         0.547527      0.225720      1.316682
Ti       1.89203      1.95526     15.33570        -0.141517     -0.521120     -0.093531
Ti       1.92082     13.48383      2.29420        -0.359517     -0.004766     -1.225847
Ti       1.80685     13.42567     15.33393         0.750731      0.481221      0.185813
Ti      13.48930      1.85021      2.27204        -0.659656     -0.210480     -0.198405
Ti      13.35451      1.82774     15.41506         0.490070      1.213889      0.648970
Ti      13.48417     13.38308      2.25960        -1.246166      0.239346      2.787871
Ti      13.37433     13.41045     15.33450         0.032689      0.215083      1.146748
Ti       1.85007      1.91816      6.70433         0.044392     -0.515729     -0.817185
Ti       1.89332     13.37095      6.70829         0.019710      0.650038      0.971062
Ti      13.39491      1.91646      6.60713        -0.202111     -0.780609      2.702814
Ti      13.39446     13.43678      6.59667         0.449238     -0.149381      2.061484
Ti       1.87466      1.94894     10.88588        -0.144834     -0.709699      1.451679
Ti       1.96017     13.50559     10.92443        -0.597301     -0.566141      0.854132
Ti      13.41759      1.91808     11.04267         0.122974     -0.286399     -0.015075
Ti      13.37246     13.35915     10.98189         0.761875      2.099127      0.006329
Ti       1.89635      5.69369      2.39596         0.506213      0.550249     -0.601820
Ti       1.91537      5.74913     15.37599        -0.530506      0.358885      1.630134
Ti      13.40653      5.72015      2.26497         0.797696     -0.094743      0.576438
Ti      13.40804      5.73274     15.33669        -0.368870     -0.743376      1.027416
Ti       1.91000      5.71587      6.50726        -0.312664      0.154446      1.066590
Ti      13.36719      5.82455      6.57799        -0.843151     -0.456417      1.142832
Ti       1.87538      5.73410     11.03908         0.434750     -0.177776     -0.088207
Ti      13.43527      5.83191     11.13522        -0.320348     -0.718575      2.241106
Ti       1.92266      9.62493      2.24434         0.046387     -0.650360     -0.505407
Ti       1.80600      9.58062     15.40005         0.896187     -0.585289      0.166710
Ti      13.33495      9.46589      2.29604        -0.035935      1.501085      0.828104
Ti      13.39753      9.55270     15.33609        -0.581795     -0.590194      1.224577
Ti       1.84202      9.56665      6.71832        -0.872176      0.196225      0.514974
Ti      13.33963      9.62273      6.50924         0.928461      0.462629      1.025277
Ti       1.72467      9.54353     10.97801         1.551336      0.260770      1.018218
Ti      13.31139      9.62976     11.10086         0.584348     -1.473570     -1.177212
Ti       5.72533      1.81877      2.32757         0.895480      1.058493      0.205292
Ti       5.77022      1.93956     15.30992        -0.105602      0.019980      0.479327
Ti       5.72479     13.38486      2.25525         0.525905      0.717661      0.222281
Ti       5.68139     13.46395     15.28934         0.172242     -0.395807     -0.693415
Ti       5.73371      1.91188      6.66210        -0.028378     -0.073099      1.070891
Ti       5.86102     13.36803      6.62749        -1.186281      1.714058     -0.535863
Ti       5.79603      1.93259     11.04361        -0.315475      0.023233     -0.495139
Ti       5.83857     13.41697     11.05046        -2.424426      0.271073     -0.196673
Ti       5.81256      5.77381      2.30419        -0.829468     -0.851839     -0.160115
Ti       5.74080      5.72845     15.36185        -0.068802      0.077671      0.495998
Ti       5.75639      5.89609      6.62732        -0.075342     -2.409140      0.057260
Ti       5.69363      5.73556     10.94909         0.073212     -0.515581      1.553400
Ti       5.74620      9.56380      2.32677        -0.325959     -0.309293     -0.320211
Ti       5.60133      9.60639     15.35004         0.741671     -0.263031      0.149797
Ti       5.76927      9.64209      6.64958        -0.185328     -0.765073     -1.149727
Ti       5.63185      9.57166     11.00207        -0.041053     -0.708861      0.058191
Ti       9.63591      1.79303      2.37998        -1.114900      0.322681      0.692793
Ti       9.59617      1.93869     15.41667        -0.095287     -0.294276      1.492771
Ti       9.54699     13.37155      2.24172         0.117849      0.690630      2.282960
Ti       9.52422     13.45350     15.35861        -0.563554     -0.417594     -0.441273
Ti       9.55042      1.89562      6.67692         0.089998      0.359799      1.356835
Ti       9.77177     13.40459      6.64262        -1.569828      0.064582     -0.550324
Ti       9.67602      1.89105     10.93757        -1.409687      1.024402      1.343810
Ti       9.55015     13.38329     10.97141         1.352651      0.738190      0.443874
Ti       9.68012      5.76390      2.24575        -1.699698     -0.392733      1.131669
Ti       9.48369      5.65483     15.46914         0.756521      0.586613      0.009593
Ti       9.58976      5.71851      6.66566         0.265647      0.603427     -0.481931
Ti       9.56347      5.80153     11.04995         0.031058     -0.507658     -1.060417
Ti       9.52032      9.55817      2.33235         0.435736      0.257780      1.480119
Ti       9.46659      9.48551     15.31879        -0.100365      0.812100      0.668669
Ti       9.58740      9.58728      6.45644        -0.465236     -0.950273      2.008331
Ti       9.52845      9.55865     11.00855        -0.332859     -0.556319      0.968452
O       1.97699      1.93738      0.53050        -0.139257     -0.316183     -0.635985
O       1.93012      1.94373     13.56124         0.184851      0.373317      0.205104
O       1.92899     13.57000      0.48061        -0.062661     -0.418603      1.185967
O       1.91361     13.41688     13.56286        -0.389952     -0.058991      0.665624
O      13.51548      1.75264      0.48476        -0.306168      0.495679      0.957232
O      13.22244      1.92456     13.67658         0.268259     -0.218238     -0.823481
O      13.45024     13.48436      0.57700        -0.023552     -0.216907     -1.829790
O      13.50603     13.27810     13.60085        -0.698842      0.281057     -0.643016
O       1.93032      1.94811      4.82833        -0.379948     -0.170254      1.580252
O       1.96319     13.31510      4.95236        -0.477430      0.158321     -0.531328
O      13.46192      1.85338      4.92056         0.069481      0.530508     -2.278385
O      13.26050     13.38761      4.87955         0.390874     -0.136958     -0.970735
O       1.93827      1.89704      9.16259        -0.098439     -0.005545     -1.451636
O       1.89276     13.52765      9.14355        -0.001129     -0.367092      0.441600
O      13.32726      1.81522      9.27607         0.184691      0.212277      0.005062
O      13.35232     13.59609      9.23839         0.020276     -0.503434      0.525286
O       1.88635      5.81973      0.60053        -0.094085     -0.268471      1.117835
O       1.79939      5.65265     13.65437         0.552803      0.181549     -0.880457
O      13.48815      5.65716      0.51484        -0.449301      0.336777     -0.136132
O      13.44890      5.65026     13.57867        -0.118223      0.228512     -0.236785
O       1.89439      5.67107      4.74750        -0.001737     -0.068348      0.029368
O      13.16476      5.88902      4.86016         0.771286     -0.894133     -0.472496
O       1.87035      5.80383      9.27736         0.020967      0.141594     -0.171157
O      13.36589      5.75188      9.45599         0.254242      0.094185     -3.068452
O       1.82938      9.49569      0.43560         0.069787      0.472885      1.819523
O       1.86249      9.50994     13.62636        -0.207322      0.271766      0.395845
O      13.31236      9.48189      0.53504         0.375636      0.275953     -0.333268
O      13.45259      9.66161     13.59992        -0.459119      0.142066     -0.398949
O       1.77493      9.63754      4.98411         0.043276      0.277950     -1.151929
O      13.47625      9.57195      4.72989        -0.136631      0.008039      0.832158
O       1.68036      9.56045      9.22088         0.479764     -0.436898     -0.630904
O      13.30668      9.56096      9.30376        -0.201377     -0.067103      1.017218
O       5.81826      2.00089      0.58741        -0.296615     -0.605098     -0.409328
O       5.80621      1.86301     13.51677        -0.408113      0.074111      0.607036
O       5.62978     13.38432      0.44883         0.217536     -0.056416      0.436110
O       5.69319     13.38978     13.50549        -0.052616      0.280636      0.171238
O       5.73670      1.83482      4.89383        -0.082764      0.195363     -0.002465
O       5.79779     13.49625      4.81933        -0.294671     -0.681511      1.062617
O       5.78513      1.96392      9.26170        -0.132881      0.020140     -0.202538
O       5.77632     13.32204      9.26334         0.429226      0.074672      0.374759
O       5.68462      5.75937      0.53848         0.206491      0.205293     -0.097382
O       5.91953      5.73561     13.61099        -0.844575     -0.066590      0.071279
O       5.66535      5.89708      4.87720         0.379353     -0.397167     -0.105613
O       5.64110      5.60482      9.19782         0.076037      0.447056     -0.969443
O       5.70866      9.46486      0.53525         0.083310      0.472721      0.263838
O       5.65812      9.71144     13.59253        -0.132931     -0.864231     -0.355673
O       5.68139      9.72740      4.83320         0.112707     -0.096105      1.197216
O       5.61895      9.60320      9.22885         0.157179     -0.069167     -0.455975
O       9.57323      1.78180      0.64925        -0.091204     -0.066105     -1.385761
O       9.54988      1.83161     13.69772         0.288174     -0.014131     -1.104600
O       9.43404     13.46833      0.50880         0.340564     -0.142912     -1.362497
O       9.50079     13.49644     13.58688         0.317030     -0.100353     -0.473739
O       9.47009      1.93759      4.96577         0.170824      0.112419     -1.168891
O       9.79176     13.26251      4.87825        -0.412584      0.441613      0.840985
O       9.59588      1.98721      9.23582         0.018108     -0.453431     -1.443794
O       9.63165     13.28996      9.22646        -0.581103      0.336954      0.023001
O       9.54332      5.67056      0.51734         0.279193      0.288500     -0.694486
O       9.40399      5.65687     13.66908         0.493409      0.622689     -0.148128
O       9.72978      5.87479      4.86605        -0.229405     -0.728187      0.397779
O       9.52584      5.94827      9.25888        -0.123569     -0.520007      0.992370
O       9.36075      9.47332      0.64908         0.284438      0.348643     -2.597742
O       9.43743      9.58656     13.56011         0.546005     -0.303729     -0.327044
O       9.62609      9.56115      4.72137        -0.301281      0.297248     -0.200301
O       9.42053      9.43844      9.28263         0.284726      0.398622     -0.297895
O       3.83892      1.98815      2.74425        -0.386189     -0.159230     -0.044104
O       3.82710      1.87766     15.79889         0.360785      0.767043     -0.230118
O       3.79427     13.38080      2.66366        -0.256946      0.051140      0.125160
O       3.79368     13.31349     15.73599        -0.809055      0.470791      0.252458
O       0.01928      1.85395      2.69857        -0.667587     -0.079414      0.063813
O       0.00272      1.88100     15.69189        -0.126135      0.177083      0.355759
O      15.30910     13.59127      2.78057         0.856090     -0.768119     -0.234073
O      15.24874     13.47530     15.78344         0.870519     -0.581025     -0.056037
O       3.81231      1.96564      7.03484        -0.434438     -0.132617      0.100292
O       3.78095     13.33372      7.07041         0.324688     -0.257687     -0.036040
O      15.29843      1.78804      7.12373         0.033186      0.668539     -0.364874
O      15.23266     13.44722      7.17753         0.848278     -0.030223     -0.743848
O       3.82614      1.78578     11.35070         0.021153     -0.014185      0.331735
O       3.78768     13.55723     11.36525         0.552438     -0.082136     -0.274584
O      15.32504      2.01871     11.45527         0.033339     -0.111721     -0.451837
O      15.32051     13.43393     11.51727        -0.037005     -0.789732     -0.733832
O       3.88052      5.69978      2.76316        -0.882029     -0.266128      0.013267
O       3.81697      5.78765     15.88020        -0.220559     -0.683858     -0.577811
O      15.27886      5.71405      2.77630         0.687601      0.453618     -0.125354
O      15.27342      5.77192     15.84311         0.292800      0.215247     -0.088292
O       3.72480      5.70210      6.97749         0.055221      0.364403     -0.009739
O      15.17889      5.81734      7.07441         0.803512     -0.304710     -0.443999
O       3.83440      5.63314     11.45872        -0.605390      0.683278      0.299434
O       0.01672      5.66567     11.50391         0.028691     -0.452673     -0.138855
O       3.83015      9.68360      2.72970        -0.755306     -0.324725     -0.145631
O       3.72684      9.62994     15.74179         0.488580      0.143906      0.158135
O       0.11000      9.35217      2.77079        -0.631916      1.432861     -1.278549
O      15.26021      9.44893     15.79997        -0.675839      0.609653      0.021295
O       3.70167      9.62395      7.02159         1.161330     -0.102707      0.354768
O      15.14854      9.55162      7.22196         0.377743     -0.110686     -0.860125
O       3.74585      9.43020     11.40981         0.279762      0.218928      0.029022
O      15.28300      9.66462     11.47367        -0.221180      0.149582     -0.056518
O       7.64297      1.81775      2.87064        -0.541010      0.193764     -0.191789
O       7.64405      2.01579     15.85759         0.183389     -1.093097     -0.209271
O       7.62495     13.50390      2.67403        -0.121499     -0.484728      0.029546
O       7.56477     13.42827     15.68982         0.379075      0.020934      0.446979
O       7.60551      1.83248      7.17738         0.355773     -0.031375     -0.218120
O       7.67601     13.40645      6.94272         0.519985      0.056702      0.500172
O       7.62032      1.90526     11.38327         1.984076      0.127598      0.097221
O       7.64485     13.35424     11.51886         1.393132      0.230337     -1.207082
O       7.70188      5.83693      2.72613         0.720883     -0.412708      0.067066
O       7.57620      5.76770     15.83910         1.040112     -0.151270      0.374108
O       7.70962      5.83352      6.99196        -1.317228     -0.167084      0.171257
O       7.56126      5.69077     11.44692         1.792160      0.421482     -0.503655
O       7.57851      9.56309      2.72601         0.615462      0.339086      0.443781
O       7.61251      9.55067     15.71349        -0.346814     -0.082313      0.435300
O       7.63083      9.45356      6.85812         0.029947      0.508209      0.220467
O       7.57860      9.50803     11.45425         0.604844      0.358882     -0.355902
O      11.47869      1.78971      2.71828         1.490404      0.789839      0.244169
O      11.49419      1.95139     15.84146        -0.966731     -0.892448      0.222167
O      11.40523     13.43574      2.73318         1.182455     -0.074474     -0.624487
O      11.40407     13.48988     15.68801         0.805144     -0.214983      0.233118
O      11.45223      1.97379      7.02410         0.493320      0.063318      0.059261
O      11.53137     13.38950      7.17428         0.054645     -0.406278     -0.068073
O      11.47857      1.89091     11.47589         0.245316     -0.431482      0.069072
O      11.47552     13.50383     11.41762        -0.358663     -0.365837      0.246928
O      11.49681      5.63376      2.67397         0.164859      0.514284     -0.077469
O      11.46940      5.69322     15.77633        -0.214725      0.007401      0.234596
O      11.46043      5.68476      7.15790         0.838244      0.223755     -0.219150
O      11.51992      5.98415     11.45043        -0.810053     -0.888352      0.271921
O      11.45926      9.61227      2.61616         0.753150      0.036925     -0.110240
O      11.36822      9.54155     15.87711         0.591953      0.650666     -0.281848
O      11.43252      9.62195      7.01377         0.208640      0.272860     -0.276501
O      11.45963      9.39702     11.52282         0.110618      0.890572     -0.025968
O       1.81006      3.74616      2.71801         0.240681      0.945389     -0.087681
O       1.76845      3.91246     15.91019         1.023544     -0.821791     -0.542427
O       1.88932     15.32783      2.86406         0.614100      0.323618     -0.666477
O       1.94772      0.04285     15.62999        -0.107176     -1.141474      0.419551
O      13.39474      3.85399      2.64165        -0.074615     -1.453538      0.275449
O      13.33594      3.74908     15.89321         0.698229      0.675114     -0.071084
O      13.34672     15.34253      2.71539         0.481621      0.226350      0.089722
O      13.51418     15.30424     15.81925        -1.096783     -0.113091     -0.589321
O       1.70343      3.83900      6.88814         0.115338      0.423090      0.397286
O       1.88822     15.35125      7.02550         0.227768     -0.329091     -0.181032
O      13.36132      3.81335      7.19999         0.247188      0.656455     -1.102778
O      13.31567     15.35135      6.94081        -0.148302     -0.118373      0.300714
O       2.07163      3.75488     11.20909        -0.585669      1.026256      0.717787
O       1.74178      0.00237     11.32144         0.385617     -0.253736      0.230833
O      13.26956      3.80282     11.42458         0.412668      0.448637      0.176587
O      13.48677      0.01547     11.44646        -0.459928     -0.572493      0.434395
O       2.04850      7.63135      2.82699        -0.462165      0.484196     -0.573274
O       1.92523      7.67060     15.89041        -0.420695     -0.201582     -0.383556
O      13.29236      7.64968      2.64717         0.380145     -0.764772      0.033707
O      13.26625      7.64893     15.72576         0.199890      0.456262     -0.153208
O       1.74963      7.67710      6.89196         0.327013     -1.035990      0.549134
O      13.20199      7.70550      7.01218         0.658197     -0.278743     -0.468645
O       1.78106      7.66249     11.47140         0.234695     -0.483581     -0.134476
O      13.62428      7.68878     11.47663        -0.548351      0.446003      0.072520
O       1.81936     11.57679      2.71484        -0.056654     -0.943230     -0.491951
O       1.67976     11.47751     15.85152         0.359101      0.504565     -0.428061
O      13.49712     11.46871      2.68542         0.182236      0.071407     -0.311952
O      13.25993     11.54178     15.87417         0.592891     -0.828871     -0.198965
O       1.72224     11.45489      7.17282         0.311108      0.701189     -0.331140
O      13.39675     11.49552      7.18740        -0.370797     -0.224223     -0.851654
O       1.97609     11.44948     11.43075        -0.376236      0.558045     -0.424483
O      13.30479     11.51317     11.31652        -0.247508     -0.163779      0.403867
O       5.88873      3.87702      2.56751        -0.335000     -0.761938      1.073394
O       5.81321      3.78245     15.83141        -0.935865      0.408563     -0.299416
O       5.59547     15.32196      2.63090         0.189120     -0.264648      0.066268
O       5.74558     15.35575     15.73324        -0.311636      0.296073      0.009306
O       5.71621      3.86031      7.05412         0.290235     -0.187597     -0.271925
O       5.69864     15.28096      7.15025         0.087096     -0.005810     -0.248997
O       5.76421      3.79019     11.48280        -0.482465      0.148429     -0.162961
O       5.95437     15.32449     11.34863        -0.817883     -0.701323     -0.042013
O       5.78802      7.61978      2.71098        -0.650346      1.691525      0.271062
O       5.69366      7.63201     15.66860        -0.208030      1.011774      0.263189
O       5.68281      7.66098      6.99200        -0.558108      1.473583      0.601180
O       5.66649      7.58063     11.26743         0.090961      0.866796      0.475024
O       5.73415     11.53699      2.67459         0.106255     -0.412924      0.017023
O       5.68653     11.53938     15.64049         0.146081     -0.591249      0.927044
O       5.79631     11.47603      7.16554        -0.208056      0.085360     -0.478476
O       5.61162     11.44932     11.41971         0.448378      0.654480     -0.281057
O       9.60150      3.75508      2.68584        -0.309368      0.937547      0.468919
O       9.53015      3.81068     15.84862         0.016290     -0.133115     -0.025360
O       9.52042     15.35461      2.82090         0.253287     -1.497999      0.038481
O       9.50570     15.30490     15.86887        -0.151658      0.960026     -0.166545
O       9.54048      3.83511      7.16569        -0.270171      0.076099     -0.474503
O       9.73315     15.34082      7.06964        -0.903612     -0.496560     -0.033850
O       9.61286      3.81422     11.43141         0.149392      0.856309     -0.188957
O       9.59435      0.05815     11.28075        -0.508097     -2.009429      0.287970
O       9.58888      7.69032      2.64288         0.197690     -1.158849      0.206219
O       9.58138      7.62891     15.76232        -0.368623      0.019323     -0.003147
O       9.62582      7.63726      7.00588        -0.024386      1.037212      0.039396
O       9.62126      7.65901     11.42599        -1.187225      0.043778      0.756576
O       9.63097     11.50721      2.63794        -0.866517     -0.127474      0.104743
O       9.45155     11.52185     15.70346         0.519451     -0.233543      0.465208
O       9.48894     11.48074      7.01797         0.232723     -0.460557      0.051341
O       9.62727     11.48187     11.37723        -0.004359      0.190082     -0.038632
