  # total energy = -7884.05098227 
CRSYTAL
PRIMVEC
    15.3600000000000000    0.0000000000000000    0.0000000000000000
     0.0000000000000000   15.3600000000000000    0.0000000000000000
     0.0000000000000000    0.0000000000000000    17.440000000000000
PRESSURE
0.167843 0.39364 0.201961 -0.379068 -0.047164 0.043458
PRIMCOORD
320 1
Pb       3.80962      3.83219      4.35975         0.248593      0.033994     -0.317542
Pb       3.89779      3.81874     17.37141        -0.630283      0.024166      0.439084
Pb       3.82698     15.35012      4.32257        -0.274235     -0.493467      0.211317
Pb       3.86419      0.01020     17.40540        -0.398879     -0.375217      0.053097
Pb      15.32278      3.82330      4.35964         0.189024      0.157261     -0.163487
Pb       0.02418      3.82337      0.00396         0.003252      0.200467     -0.182233
Pb      15.35557     15.33024      4.32914         0.382989     -0.280523     -0.448580
Pb      15.24272     15.33211     17.41520         0.387540      0.074012     -0.172776
Pb       3.80889      3.86973      8.63065        -0.264834     -0.150683      0.113261
Pb       3.82296     15.33088      8.74898        -0.159620      0.118694     -0.267934
Pb      15.21819      3.84174      8.64598         0.818503      0.193932      0.054306
Pb      15.31316      0.06633      8.67472         0.233220     -0.823171      0.314918
Pb       3.85575      3.79649     13.00471        -0.495309     -0.007106     -0.176397
Pb       3.80894     15.28776     13.02363        -0.403985      0.505140     -0.362058
Pb      15.32400      3.76827     13.06783         0.258897      0.105339     -0.014563
Pb      15.34601      0.01384     12.98110         0.014097     -0.198362      0.320134
Pb       3.85783      7.68876      4.29594         0.104180     -0.399819      0.344408
Pb       3.78367      7.66650      0.00714        -0.033797     -0.055750     -0.368855
Pb       0.06481      7.66427      4.31197        -0.465610      0.191226      0.271283
Pb      15.34638      7.73420     17.36969        -0.207545     -0.593998      0.255688
Pb       3.88990      7.62867      8.68680        -0.662222      0.449028      0.274880
Pb      15.33460      7.64183      8.68099         0.195009      0.288409      0.155908
Pb       3.82983      7.65942     13.06175         0.023232     -0.176893     -0.141540
Pb       0.01508      7.67745     13.05828        -0.402940     -0.042664      0.063633
Pb       3.75738     11.48118      4.31496         0.221936      0.363421      0.057343
Pb       3.90144     11.41970     17.37082        -0.447699      0.182224     -0.063813
Pb       0.05217     11.56511      4.25451        -0.169135     -0.305191      0.192849
Pb      15.32370     11.47898     17.38390        -0.072534      0.082871     -0.337875
Pb       3.80336     11.55231      8.70506         0.021662     -0.315545     -0.481133
Pb      15.35254     11.44340      8.67249        -0.064103      0.214429      0.124699
Pb       3.88710     11.51388     13.03037        -0.055427     -0.166405     -0.346254
Pb       0.02864     11.49000     13.08753        -0.561615     -0.002478     -0.455729
Pb       7.66929      3.77013      4.36050        -0.128405      0.388691     -0.299892
Pb       7.71207      3.86899     17.32604        -0.724595     -0.155853      0.458372
Pb       7.66232      0.02766      4.31077         0.087935     -0.395898      0.372776
Pb       7.56040     15.34529     17.37197         0.233435     -0.086087     -0.151054
Pb       7.66373      3.81939      8.68599        -0.181185     -0.137768     -0.189577
Pb       7.68264     15.30338      8.66487        -0.413952      0.435614     -0.466368
Pb       7.73273      3.87737     13.13222        -0.714758     -0.226557     -0.391157
Pb       7.69224      0.04036     13.03821         0.010427     -0.340481     -0.224673
Pb       7.61096      7.62479      4.29780         0.102790     -0.289275      0.130004
Pb       7.66829      7.64815     17.41451        -0.351165     -0.025794      0.200652
Pb       7.63196      7.73861      8.65073         0.022468     -0.217776      0.203757
Pb       7.65102      7.63811     13.02539        -0.500232      0.332361      0.152620
Pb       7.65219     11.46844      4.32603         0.138466     -0.094903      0.354671
Pb       7.63251     11.56638     17.35305         0.060752     -0.609810      0.260984
Pb       7.70203     11.48820      8.69216        -0.418714     -0.083856     -0.268122
Pb       7.75822     11.57786     13.06984        -0.439674     -0.583027     -0.552201
Pb      11.54868      3.77967      4.34146        -0.595545      0.499561     -0.091652
Pb      11.50241      3.82664     17.42820         0.495033     -0.081533      0.092222
Pb      11.51976      0.01826      4.27254         0.154309     -0.684000      0.485742
Pb      11.48417     15.33587     17.31143        -0.026024     -0.145246      0.250508
Pb      11.54472      3.92009      8.67596        -0.474534     -0.672926     -0.092477
Pb      11.50274     15.30964      8.66679        -0.013827      0.130098     -0.291584
Pb      11.51437      3.77683     13.11736         0.088165      0.045035      0.021892
Pb      11.45290     15.33811     13.02694         0.293729     -0.141917     -0.030238
Pb      11.54388      7.68055      4.27885        -0.230830     -0.286086     -0.044956
Pb      11.46286      7.63067     17.42651         0.174589     -0.017134     -0.239880
Pb      11.53153      7.66195      8.67293        -0.284331      0.026046     -0.333624
Pb      11.46073      7.68674     13.01488         0.771332     -0.098760      0.280868
Pb      11.53441     11.45387      4.35739        -0.171827      0.156178     -0.191878
Pb      11.45522     11.49425     17.39170         0.233570     -0.074438     -0.271424
Pb      11.49391     11.50127      8.75000         0.202969      0.167567     -0.257153
Pb      11.49754     11.50268     12.99406        -0.006859     -0.498872      0.396078
Ti       1.97045      1.95355      2.31407        -0.180802     -0.994498      0.906381
Ti       1.98673      1.90910     15.39689        -0.944646     -0.425640     -1.967242
Ti       1.90068     13.44678      2.18158         0.300273      0.604123      1.267918
Ti       1.87249     13.49628     15.38335        -0.039423     -0.247024      2.501657
Ti      13.52499      1.90022      2.37863        -0.432029      0.261313     -0.350410
Ti      13.47866      1.95831     15.38198         0.288997     -0.944075      2.084017
Ti      13.38160     13.36125      2.31846         0.212209      0.296143      0.510196
Ti      13.39744     13.46698     15.31481         0.476502     -0.579660      0.842995
Ti       1.92145      1.89828      6.65686        -0.022064      0.225210      1.576490
Ti       1.86590     13.39647      6.69896         0.104691      0.183255      0.753515
Ti      13.47480      1.92005      6.65747        -1.184548     -0.428132      1.732895
Ti      13.38119     13.41652      6.65260        -0.072993     -0.006715      0.948435
Ti       1.83828      1.89673     10.98756         1.355776      0.254526     -0.242975
Ti       1.87707     13.42813     11.00780        -0.502975     -0.076864     -0.466794
Ti      13.38931      1.84931     11.04164         0.055213     -0.060214      2.396797
Ti      13.39930     13.34922     11.09100        -0.001864      0.345144     -0.861024
Ti       1.83715      5.75607      2.35278         0.481795     -0.682357     -0.564060
Ti       1.84984      5.71684     15.32258         0.149726     -0.104281      0.953736
Ti      13.39928      5.77282      2.31334         0.302619     -0.327465      0.426782
Ti      13.39915      5.73547     15.37825         0.231430      0.002929     -0.577130
Ti       1.82427      5.80423      6.57313         0.146124     -0.859052      1.214100
Ti      13.39001      5.81985      6.61690        -0.274901     -0.185409      0.568675
Ti       1.87759      5.72151     11.02702         0.269299      0.164847     -0.986567
Ti      13.47270      5.65021     11.10708        -0.346338      0.302669      1.602470
Ti       1.95313      9.58083      2.30199        -0.690262      0.086227     -0.278679
Ti       1.86004      9.57376     15.36649         0.205608      0.118261      0.649260
Ti      13.48568      9.55210      2.29573        -0.753497      0.009460      0.417615
Ti      13.29152      9.55489     15.42238         0.763006      0.201004     -1.526265
Ti       1.86308      9.54794      6.63648         0.960955      0.511193     -0.067704
Ti      13.34961      9.66200      6.61909         0.673306     -0.519008      0.060980
Ti       1.86747      9.59522     11.01393        -0.122333     -0.303012     -1.513452
Ti      13.40850      9.48926     11.02313        -0.512058      0.716116      1.573364
Ti       5.72060      1.83407      2.31449         0.497641      0.038683      0.892539
Ti       5.71689      1.85616     15.26634         0.188375      0.466357      2.851938
Ti       5.74310     13.35269      2.36802        -0.704676      0.144669      0.616097
Ti       5.68787     13.38445     15.28367         0.107515      0.006642     -0.499933
Ti       5.68930      1.90961      6.65688         0.563471     -0.108623     -0.048229
Ti       5.63891     13.44287      6.59513        -0.172640      0.311729      0.753160
Ti       5.70572      1.89753     11.04238        -0.003782      0.144505      1.005657
Ti       5.70912     13.41748     10.98849         0.018304     -0.102391      0.060919
Ti       5.71857      5.65448      2.23842         0.267325      0.371014      0.493533
Ti       5.63971      5.74207     15.42915         0.447123      0.063598     -1.425087
Ti       5.70326      5.83734      6.72789         0.566315     -0.901313     -0.144786
Ti       5.72673      5.70973     11.05767        -0.540230     -0.057411     -0.622209
Ti       5.75356      9.52989      2.33385        -0.166432      0.166282     -0.625949
Ti       5.73945      9.55389     15.36008        -0.143066     -0.592699     -1.174286
Ti       5.73757      9.60979      6.58767        -0.430093      0.091265      0.072170
Ti       5.69534      9.49781     11.01539         0.651345      0.686644      0.518890
Ti       9.62617      1.88053      2.39790        -0.277963      0.301796      0.805306
Ti       9.58136      1.95859     15.43595         0.389763     -1.160558     -1.037030
Ti       9.57475     13.36128      2.31504         0.088928      0.254372      1.861314
Ti       9.54210     13.39737     15.35623         0.086999      0.077753     -0.128938
Ti       9.53596      1.91350      6.62790         0.555908      0.063454      1.464484
Ti       9.48328     13.36003      6.68280         0.651734      0.444217     -0.585788
Ti       9.56857      1.92919     11.06166         0.186061     -0.583664     -1.007550
Ti       9.52763     13.42288     11.02909         0.818815     -0.233109      1.976557
Ti       9.50833      5.74957      2.21361         0.334756      0.069662      1.321802
Ti       9.52168      5.75479     15.36694         0.399258     -0.100881      2.463029
Ti       9.50616      5.70979      6.64580         1.120808      0.334974     -0.715608
Ti       9.59190      5.72256     11.05544        -0.011668     -0.340381      0.107763
Ti       9.56274      9.56799      2.29411         0.031305     -0.302620      0.552972
Ti       9.51848      9.52464     15.34345         0.294072      0.495266      1.538497
Ti       9.58889      9.55733      6.64484         0.138071      0.117499      1.917350
Ti       9.57297      9.50467     10.92220        -0.296240      0.922323      0.736009
O       2.05906      1.82431      0.60156        -0.281331      0.322622     -1.040399
O       2.09279      1.79203     13.54347        -0.700191      0.441161      2.056028
O       1.81581     13.46794      0.43855         0.157397     -0.109009      0.123764
O       1.82186     13.56334     13.69517         0.141667     -0.420941     -1.642267
O      13.54057      2.03506      0.61995        -0.239772     -0.586530      0.468145
O      13.50902      1.86953     13.69319        -0.295454      0.023192     -1.564934
O      13.35537     13.35499      0.56920         0.056773      0.162043      0.059377
O      13.55373     13.51786     13.57697        -0.423577     -0.292092      0.012191
O       1.87132      1.98720      4.92063         0.171744     -0.278199     -0.004955
O       1.89530     13.33169      4.94320         0.023378      0.135747      0.362430
O      13.52231      1.80418      4.95367        -0.069908      0.232958     -1.373875
O      13.35528     13.42898      4.88349         0.384908     -0.073530      0.671782
O       2.04118      1.92793      9.20082        -0.747917     -0.048965      0.997597
O       1.91236     13.47150      9.23503         0.102658     -0.457437      0.432008
O      13.51977      1.97949      9.36498        -0.381198     -0.039495     -2.054149
O      13.27298     13.47750      9.31235         0.213145     -0.499508      0.681121
O       1.83774      5.60657      0.57798         0.043455      0.515865      0.787636
O       1.89979      5.80671     13.55863        -0.018819     -0.183018      0.613118
O      13.45650      5.75176      0.56134        -0.116599     -0.166078     -0.231937
O      13.52695      5.68261     13.58198        -0.285110     -0.098475      1.140101
O       1.77888      5.71338      4.79801         0.308491      0.017247      1.080977
O      13.56993      5.75460      4.88736        -0.653202      0.135430      0.037501
O       1.82146      5.87433      9.21268         0.038054     -0.369144      1.322749
O      13.40200      5.69829      9.36636        -0.034107     -0.013621     -0.172642
O       1.77188      9.60253      0.49413         0.606740     -0.436164      1.419045
O       1.90824      9.57493     13.58508        -0.281606     -0.032105      0.786465
O      13.26289      9.48033      0.52494         0.536995      0.176831      0.499600
O      13.31930      9.54037     13.61836         0.109216     -0.020459      1.163286
O       2.09411      9.51228      4.81079        -1.039168      0.525824      1.594501
O      13.46284      9.62300      4.85164        -0.398327     -0.039990      0.436695
O       1.83851      9.57644      9.09347         0.096281      0.037233      2.921458
O      13.27188      9.58489      9.30235         0.302269     -0.156402     -0.550910
O       5.65787      1.62661      0.56512         0.385589      0.579972      0.134240
O       5.68712      1.88369     13.56758         0.027471      0.023553     -0.589942
O       5.63862     13.32129      0.62044         0.602810      0.148181     -0.430184
O       5.69971     13.40511     13.47855         0.079169     -0.085735      1.262615
O       5.63790      1.84517      4.87884         0.392950      0.180791      0.411298
O       5.43579     13.52904      4.85453         0.943428     -0.367185     -0.013913
O       5.76242      1.96916      9.34051        -0.175518      0.050883     -1.352861
O       5.69217     13.41738      9.20439         0.162262     -0.025663      0.975380
O       5.87250      5.77423      0.47171        -0.725094     -0.240139      0.555487
O       5.73736      5.72838     13.57586        -0.392307      0.013180      1.850673
O       5.84120      5.88077      4.98152        -0.325280     -0.169049      0.309152
O       5.71874      5.78362      9.23358        -0.017318     -0.119968      0.882995
O       5.63318      9.58447      0.50644         0.307058     -0.116650      1.170413
O       5.80265      9.54916     13.52441        -0.432160     -0.024411      1.612660
O       5.88086      9.35952      4.80830        -0.684755      0.659950      1.138903
O       5.70683      9.47005      9.24666         0.080200      0.380791      0.885946
O       9.62906      1.78369      0.68854        -0.129180     -0.048775     -1.313964
O       9.63264      2.04161     13.65763        -0.348097     -0.514633      1.125762
O       9.53782     13.40242      0.59643        -0.043533      0.031633     -1.099749
O       9.40266     13.32433     13.58927         0.431990      0.201479      0.632138
O       9.57151      2.17113      4.88724         0.029792     -0.789576     -0.224186
O       9.59234     13.24567      4.93367        -0.076406      0.038989      0.564761
O       9.64754      1.91199      9.24898        -0.386741      0.048653      1.560568
O       9.53439     13.48952      9.32334        -0.148348     -0.084082     -1.528031
O       9.50935      5.95176      0.43591        -0.045942     -0.981924      0.939493
O       9.35521      5.61315     13.67796         0.575805      0.298757     -1.348437
O       9.66474      5.68719      4.86230        -0.431638     -0.188400      0.915202
O       9.59282      5.69723      9.31263         0.023112     -0.141414      0.397863
O       9.45512      9.53774      0.54452         0.432765     -0.059940      0.301689
O       9.51525      9.65191     13.63956         0.065301     -0.366832     -0.791125
O       9.68150      9.78526      4.94802        -0.314729     -0.425107     -1.073412
O       9.53425      9.62797      9.15065         0.157128     -0.410821      0.994122
O       3.87132      1.82480      2.84103        -0.199828      0.398500     -0.591992
O       3.84431      1.92103     15.86891         0.988790     -0.143070     -0.478996
O       3.80096     13.44169      2.74565         0.233704      0.148091     -0.534071
O       3.83841     13.35325     15.78263        -0.095303     -0.125848     -0.389254
O       0.05776      1.87866      2.76663        -0.704276      0.062716     -0.071447
O       0.02380      1.79080     15.73637         0.247238      0.391366      0.318682
O      15.35166     13.39100      2.80143         0.252093      0.193685     -0.651781
O      15.29940     13.42727     15.81833         0.430839      0.103228     -0.064593
O       3.82881      1.97644      7.13525        -0.587075     -0.009720     -0.392176
O       3.80360     13.49600      7.19407        -0.445063     -0.423905     -0.293812
O      15.31599      1.88004      7.17945         0.677866      0.416120     -0.492784
O      15.31219     13.35564      7.16765         0.165131      0.157038     -0.619717
O       3.75015      1.95931     11.52846         0.837079     -0.589503     -0.693946
O       3.74653     13.40278     11.44614         1.119531     -0.036113     -0.121962
O      15.32560      1.87495     11.51778         0.191140      0.024789     -0.536816
O      15.30167     13.28471     11.39184         0.355079      0.464490      0.184960
O       3.86200      5.69491      2.77114        -0.271954      0.126280     -0.373930
O       3.76608      5.68196     15.91750        -0.084883      0.057514     -0.551153
O      15.33759      5.75437      2.74817         0.240329     -0.295609     -0.145732
O      15.29831      5.60740     15.78495         0.476213      0.485884     -0.141310
O       3.77195      5.82945      7.08580        -0.379232     -0.071459     -0.641269
O      15.22458      5.80502      7.14828         0.733887     -0.100904     -0.425217
O       3.77142      5.79834     11.46200         0.372460     -0.293192     -0.186158
O       0.01930      5.63652     11.48201        -0.631199      0.225605     -0.109201
O       3.82300      9.45692      2.79131         0.311293      0.557524     -0.859225
O       3.76179      9.49736     15.83399        -0.111794      0.405914     -0.386141
O       0.02197      9.64168      2.73367         0.641118     -0.400856     -0.350665
O      15.21394      9.41987     15.83196         1.171226      0.685745     -0.442926
O       3.82662      9.53846      7.04386        -0.299631     -0.124039     -0.253446
O      15.25387      9.69688      7.07329         0.778738     -0.485811     -0.398205
O       3.75161      9.52943     11.47056         0.446751      0.305879     -0.467749
O      15.25173      9.57507     11.43339         1.686587      0.286714     -0.088454
O       7.65303      1.90273      2.83831         0.337810     -0.068818     -0.429637
O       7.65824      1.92496     15.81715        -0.492104     -0.195331     -0.216073
O       7.69616     13.30609      2.88900         0.025403      0.137379     -0.809430
O       7.60457     13.33534     15.84941        -0.214544      0.179719     -0.369890
O       7.60694      1.90736      7.16935         0.419243      0.156753     -0.437613
O       7.52357     13.39171      7.05513         1.107289      0.021024      0.002553
O       7.68329      1.82924     11.49720        -0.077968      0.120478     -0.251004
O       7.67490     13.48479     11.55316        -0.681798     -0.142306     -0.894808
O       7.61342      5.66446      2.78949         0.548576      0.089751     -0.672253
O       7.57410      5.70219     15.84584         0.782603      0.109921     -0.419691
O       7.68708      5.83063      7.17221        -0.560809     -0.142442     -0.342758
O       7.53616      5.80090     11.55405         2.061766     -0.613228     -0.625981
O       7.62765      9.62646      2.80851         0.851221     -0.160915     -0.677240
O       7.63027      9.41324     15.84964        -0.614994      0.664717     -0.619219
O       7.63942      9.64561      7.15446         0.019992     -0.246210     -0.590034
O       7.71166      9.46601     11.46662        -0.260829      0.187677     -0.789773
O      11.55639      1.91552      2.82041        -0.109348     -0.137200     -0.159009
O      11.53395      1.81680     15.89558        -0.748982      0.407400     -0.327414
O      11.52707     13.33915      2.80633        -0.232592      0.431981     -0.478240
O      11.47736     13.39505     15.68568        -0.337223      0.045248      0.160580
O      11.48467      1.85662      7.10244         0.187614      0.249658     -0.475865
O      11.44883     13.43575      7.12929         0.280165      0.156267     -0.232423
O      11.49851      1.89230     11.67620        -0.093886      0.128252     -1.031414
O      11.47742     13.32356     11.56468        -0.359863      0.616328     -0.366775
O      11.52414      5.85778      2.62565        -0.794534     -0.271378      0.009696
O      11.48702      5.62138     15.81797        -0.373592      0.218356     -0.314732
O      11.48062      5.66294      7.17949         0.173238      0.501182     -0.542961
O      11.51917      5.61804     11.59287        -0.437743      0.278971     -0.670391
O      11.54074      9.43666      2.75136        -0.251981      0.429017     -0.428210
O      11.43905      9.52937     15.77645        -0.815041      0.158948      0.357197
O      11.48497      9.64807      7.14055        -0.350465     -0.019773     -0.333021
O      11.49485      9.44360     11.49587        -0.772369      0.474491     -0.449042
O       1.88156      3.80353      2.74660         0.340082      0.298592      0.124677
O       1.94497      3.78836     15.80845        -0.225724      0.181570     -0.240411
O       1.94566     15.34475      2.75150        -0.468471     -0.346613     -0.240259
O       2.02056      0.03421     15.81186        -0.345936     -0.886855      0.006831
O      13.41825      3.84779      2.87908         0.261083     -0.332160     -0.615222
O      13.42510      3.75545     15.92483        -0.151712      0.742933     -0.459805
O      13.44099     15.32641      2.75727         0.035530      0.089845     -0.230245
O      13.43119     15.31416     15.93088        -0.305562      0.101707     -0.484965
O       1.82747      3.87791      7.09084         0.073797      0.257218     -0.425052
O       1.91130     15.35584      7.16254        -0.252684      0.086290     -0.762601
O      13.40237      3.83253      7.08644         0.164694      0.010704     -0.278708
O      13.50218     15.34095      7.21154        -0.603375     -0.179164     -0.713335
O       1.92480      3.79211     11.37952        -0.274169      0.409334      0.017984
O       1.86485     15.29861     11.41679         0.017922      0.414485     -0.115282
O      13.44502      3.70018     11.63115        -0.046974      1.133457     -0.638783
O      13.35541     15.30584     11.42800         0.135675      0.159912      0.168749
O       1.92651      7.64051      2.86876        -0.171701      0.334329     -1.279230
O       1.86398      7.57662     15.96862         0.013247      0.294820     -1.052581
O      13.55268      7.63171      2.85032        -0.317785      0.698567     -0.618926
O      13.27824      7.61914     15.72907         0.322206     -0.646911      0.276543
O       1.73920      7.68674      7.06306         0.220310     -0.240155     -0.583414
O      13.27829      7.73328      7.13389         0.475436     -0.620064     -0.539638
O       1.83179      7.69355     11.46890        -0.094311      0.256759     -0.340740
O      13.47541      7.61661     11.59680        -0.379302     -0.728283     -0.794266
O       2.04599     11.53935      2.69335        -0.650773     -0.781349     -0.396555
O       1.84683     11.43974     15.89248        -0.163436      0.059539     -0.934619
O      13.51085     11.45542      2.74392        -0.532080      0.052043     -0.395149
O      13.42395     11.47864     15.86155        -0.304672      0.298708     -0.383364
O       1.98200     11.47740      7.20905        -0.455814      0.236514     -0.868298
O      13.37457     11.49907      7.18884        -0.252134      0.784689     -0.516341
O       1.91513     11.55135     11.58017        -0.142695     -1.307479     -0.566262
O      13.36975     11.43996     11.60413         0.050748     -0.053411     -0.702876
O       5.72388      3.75788      2.69551        -0.069034      0.140059     -0.254351
O       5.72345      3.82470     15.93342         0.163730     -0.829476     -0.944857
O       5.95357     15.25356      2.78557        -1.016776      0.534750     -0.564186
O       5.71073     15.26462     15.72437         0.264003      0.854415     -0.209757
O       5.75005      3.85898      6.98664        -0.109419      0.481059      0.368456
O       5.68579      0.03529      7.09796         0.122936     -0.338613     -0.010112
O       5.76967      3.80738     11.47855        -0.261416      0.283401     -0.137239
O       5.66969     15.35484     11.35997         0.140157     -0.592779      0.206053
O       5.78199      7.61866      2.74790         0.035809     -0.084852     -0.630680
O       5.51558      7.63005     15.75810         0.826144      0.061564     -0.013722
O       5.72553      7.74268      7.24833         0.412871     -0.595347     -0.898869
O       5.73166      7.62987     11.49568        -0.336305      0.501934     -0.268357
O       5.72438     11.43934      2.77617        -0.260894      0.097623     -0.052078
O       5.70693     11.42828     15.70152         0.106692      0.354779      0.125619
O       5.65198     11.51890      6.86027        -0.015822     -0.464793      0.287022
O       5.71950     11.50289     11.36632         0.007825     -0.375125     -0.037571
O       9.59408      3.82852      2.69632         0.221902      0.393064     -0.422494
O       9.61380      3.78671     15.93098        -0.324987      0.405598     -0.311584
O       9.62064     15.28406      2.88083        -0.214950      0.288310     -0.515004
O       9.45630     15.27890     15.69844         0.418304      0.559519      0.345442
O       9.50917      3.83301      7.13857         0.121735     -0.181987     -0.132963
O       9.47847     15.35907      6.99088         0.055289     -0.399812      0.071129
O       9.55289      3.74575     11.61909        -0.110240      1.307018     -0.826936
O       9.65307     15.33146     11.51256        -0.286177      0.124235     -0.096430
O       9.48791      7.63767      2.73462         0.221411      0.078220     -0.261841
O       9.53426      7.60045     15.81157         0.293649      0.232416     -0.670120
O       9.65895      7.65743      6.96084        -0.221496      0.202257      0.223574
O       9.64802      7.58526     11.40216        -0.334998      0.129378     -0.006956
O       9.70861     11.44997      2.70229        -0.423927     -0.058275     -0.236645
O       9.53290     11.44591     15.87519        -0.141666      0.252923     -0.331397
O       9.58105     11.50550      7.23711        -0.382797      0.317777     -0.366221
O       9.57011     11.45602     11.43836        -0.137866     -0.208558     -0.470371
