  # total energy = -7881.38310779 
CRSYTAL
PRIMVEC
    15.3600000000000000    0.0000000000000000    0.0000000000000000
     0.0000000000000000   15.3600000000000000    0.0000000000000000
     0.0000000000000000    0.0000000000000000    17.440000000000000
PRESSURE
1.65706 1.97005 -1.62575 0.256089 0.171939 -0.030505
PRIMCOORD
320 1
Pb       3.78330      3.87081      4.22125        -0.035207     -0.452772      0.703350
Pb       3.77298      3.88720     17.33616         0.282929     -0.087950     -0.061419
Pb       3.83891      0.01508      4.22635         0.438272      0.004712      0.036730
Pb       3.94610      0.07944      0.02142        -0.388160     -0.547150      0.660639
Pb      15.22049      3.89304      4.28123         0.451031      0.027416      0.679479
Pb      15.21865      3.78372     17.39839         0.248866      0.064322      0.038740
Pb      15.22614     15.29357      4.30169        -0.041809      0.335533      0.685291
Pb       0.03171     15.33454      0.01681        -0.041273     -0.029614     -0.310344
Pb       3.90083      3.86439      8.61332         0.115680     -0.393558      0.596448
Pb       3.77735     15.25943      8.78537         0.414810      0.349832     -0.080770
Pb       0.12578      3.67034      8.66220        -0.232924      0.172332     -0.105383
Pb       0.14754     15.32355      8.59068        -0.507276      0.260937      0.632269
Pb       3.79542      3.93236     13.08548         0.021629     -0.442011     -0.488905
Pb       3.94941     15.27746     13.25138        -0.432601      0.632088     -1.004100
Pb      15.23896      3.84670     12.99035         0.308166      0.279019      0.242012
Pb      15.35436      0.05280     12.99591        -0.212051     -0.620039      0.073039
Pb       3.81436      7.63626      4.27147        -0.079621      0.020111      0.610903
Pb       3.81854      7.77294      0.01056        -0.087890     -0.297325     -0.521505
Pb      15.22717      7.47733      4.32147         0.118458      0.181384     -0.057480
Pb       0.11725      7.70371     17.38947        -0.462741     -0.129936     -0.071549
Pb       3.86057      7.53335      8.71179         0.023711      0.753754      0.372949
Pb      15.33639      7.66307      8.70492         0.112222     -0.078197      0.013579
Pb       3.79064      7.80604     13.08334         0.411794     -0.104612     -0.304345
Pb       0.02322      7.72545     12.90626        -0.739694     -0.310442      0.694816
Pb       3.80601     11.42525      4.31150        -0.011854      0.366062      0.120214
Pb       3.77530     11.40554     17.42540         0.115089      0.501836      0.190368
Pb       0.00341     11.44739      4.26848        -0.790094      0.056506      0.292568
Pb       0.06972     11.40095      0.03848        -0.488882      0.422776      0.191956
Pb       3.70367     11.51018      8.68667         0.478140      0.111997     -0.094511
Pb       0.07143     11.53046      8.60664        -0.355508      0.095215      0.597970
Pb       3.75069     11.57069     13.01971         0.363277     -0.391891      0.122719
Pb      15.16800     11.41908     13.08219         0.219292      0.545137      0.041900
Pb       7.60415      3.91513      4.33526         0.029395     -0.309425     -0.381054
Pb       7.70068      3.85755     17.27898        -0.263772     -0.003596      0.665577
Pb       7.60427      0.03999      4.17926         0.063859      0.031786      0.405771
Pb       7.78874     15.29418     17.43282        -0.306560      0.260368      0.647266
Pb       7.70086      3.70707      8.72841         0.028118      0.379618     -0.062088
Pb       7.66083     15.32989      8.64983         0.062632      0.187549      0.574349
Pb       7.50594      3.68610     13.07712         0.415756      0.488226      0.650725
Pb       7.67630     15.10193     13.16065         0.205839      0.848876     -0.217922
Pb       7.57048      7.73749      4.33333         0.280311      0.120452      0.060124
Pb       7.79955      7.51934     17.38833        -0.155263      0.319612      0.020169
Pb       7.56680      7.66544      8.67980         0.473602     -0.478394      0.392079
Pb       7.64740      7.61135     12.99716         0.426816     -0.177787      0.975994
Pb       7.66982     11.52895      4.26711         0.269697     -0.671056      0.460358
Pb       7.71679     11.46443     17.40799         0.042983     -0.082585      0.021783
Pb       7.72164     11.38456      8.75656        -0.625271      0.462347      0.365976
Pb       7.58215     11.46528     13.10444         0.246407      0.336464     -0.382538
Pb      11.52722      3.88378      4.39262         0.218318     -0.439369      0.249836
Pb      11.30457      3.79978     17.27969         0.957847     -0.113542      0.877064
Pb      11.41803      0.13959      4.25955         0.394102     -0.067224      1.088895
Pb      11.70511      0.02362     17.30307        -0.352188      0.123482      0.459768
Pb      11.63813      3.74730      8.73113        -0.206860      0.144907     -0.406656
Pb      11.49145     15.23610      8.62452         0.213918      0.564913     -0.145878
Pb      11.41875      3.90218     12.95173         0.758708     -0.115432      1.177180
Pb      11.44456     15.28800     13.04142         0.367204      0.469379      0.237533
Pb      11.50452      7.71780      4.34635        -0.098802      0.360333      0.595351
Pb      11.47258      7.62013     17.36340         0.025478      0.201210      0.097999
Pb      11.42884      7.58163      8.68534         0.137607     -0.064801      0.233210
Pb      11.61705      7.74716     12.87111        -0.281232     -0.841861      1.227333
Pb      11.40762     11.54985      4.41221         0.474962     -0.713973      0.456396
Pb      11.65279     11.56638     17.43364        -0.622883     -0.301939      0.232507
Pb      11.37203     11.52007      8.75652         0.494576      0.143753     -0.035108
Pb      11.37982     11.51089     13.00351         0.021508      0.247926      0.540512
Ti       1.85684      1.87786      2.38512         0.309753      0.765495     -0.693518
Ti       1.94530      1.83480     15.39511        -0.423512      0.568367     -0.756670
Ti       1.93702     13.42821      2.30738        -0.259022     -0.194939     -0.268965
Ti       1.92989     13.40222     15.54577        -1.389032     -0.563089     -0.301244
Ti      13.42284      1.94049      2.32375        -0.062569      1.014251     -0.279252
Ti      13.46931      1.95541     15.35882         0.020487      0.040820     -0.353652
Ti      13.34686     13.45130      2.34884         1.047531     -0.669388     -0.643843
Ti      13.46076     13.42289     15.38904         0.873460      0.307644      0.059047
Ti       2.08906      1.94216      6.66093        -0.729493      0.453042     -0.475597
Ti       1.91596     13.50641      6.57233         1.279333     -0.448157      0.006175
Ti      13.49221      1.82826      6.76242        -0.522009      0.794922     -1.652733
Ti      13.44713     13.36100      6.73991        -0.753563      0.480188     -0.591994
Ti       1.97884      1.87883     11.15163         0.582574     -0.072918     -1.092131
Ti       1.85387     13.41055     11.05544        -0.259150      0.724840     -1.056327
Ti      13.45994      1.93150     11.03994        -0.013915     -0.303508     -1.245616
Ti      13.37131     13.42962     10.95241         1.633664      0.620983     -0.374248
Ti       1.94823      5.74883      2.19043        -1.702963     -0.550958      0.659250
Ti       1.88079      5.72738     15.32680        -0.047619      0.697019      0.284816
Ti      13.32154      5.77956      2.28928         0.964415     -0.133951      0.722910
Ti      13.48965      5.76738     15.42697        -0.703560      0.189531     -1.393342
Ti       1.95248      5.84968      6.79125        -0.504317     -1.261049     -0.843877
Ti      13.44108      5.75646      6.81861        -0.073710     -0.647938     -0.905103
Ti       1.93825      5.78480     11.05077        -0.209085     -0.113721     -1.286388
Ti      13.39657      5.78201     10.95169         0.574414     -0.615530     -1.623157
Ti       1.81010      9.53466      2.36205        -0.756108     -0.159279     -0.458944
Ti       1.84693      9.62302     15.34440         0.313751     -0.658938      1.280238
Ti      13.32420      9.62534      2.32767         0.097728     -0.113357     -0.164687
Ti      13.37368      9.63510     15.48995         0.064790     -0.678640     -0.807477
Ti       1.84945      9.60143      6.62271         0.223791     -0.198430      0.241376
Ti      13.39546      9.59488      6.79247        -0.646412      0.577531     -0.980307
Ti       1.84204      9.65191     10.95087         0.845514     -0.640116     -0.392638
Ti      13.37282      9.67654     10.91126         0.883045     -0.811127     -1.344581
Ti       5.76680      1.94125      2.23478         0.314633      0.104121     -0.842935
Ti       5.80387      1.83699     15.51212         0.916332      1.131443     -0.951149
Ti       5.81627     13.30757      2.36195        -0.025640      1.095013     -1.284416
Ti       5.72130     13.41858     15.52298         0.476486     -0.689267      1.092435
Ti       5.83257      1.83390      6.66348        -0.323440      0.711925     -0.316886
Ti       5.77124     13.36848      6.69478        -0.405539      0.612484      0.337083
Ti       5.78223      1.92317     11.03150        -0.749980     -0.361067     -0.149576
Ti       5.65072     13.52143     11.05109         1.401254     -1.268694     -0.268355
Ti       5.68138      5.75405      2.32278         1.692895     -0.007954     -0.697155
Ti       5.67680      5.78556     15.42712         1.045364      0.061018     -1.160348
Ti       5.79650      5.72218      6.66892         0.201995     -0.452962     -0.229229
Ti       5.76972      5.80860     11.05217         0.450609     -0.100309     -0.029874
Ti       5.62637      9.57493      2.28732         1.549354     -0.445034     -0.218607
Ti       5.70629      9.60179     15.47626         0.343339     -0.296845     -0.570241
Ti       5.66656      9.59030      6.74519         0.571449     -0.637346     -0.746265
Ti       5.78193      9.59064     11.10023        -1.064471      1.421175     -0.139265
Ti       9.63400      1.87818      2.27735         0.042589      1.520988     -0.632524
Ti       9.59710      1.86643     15.40867        -0.036928      1.118682     -1.936924
Ti       9.64492     13.38554      2.34521         0.152516     -0.134137     -1.180574
Ti       9.64578     13.45169     15.51800        -0.287620     -0.755486     -1.651463
Ti       9.61226      1.95638      6.62507         1.130654     -0.178332     -1.126388
Ti       9.51145     13.47360      6.72219         1.504268     -0.484295     -0.924227
Ti       9.59295      1.95856     11.10823        -0.613293     -0.693600     -0.340477
Ti       9.61066     13.53258     11.05119        -1.334673     -0.660131      0.216670
Ti       9.57427      5.71744      2.43279        -0.105658     -0.481116     -1.337493
Ti       9.64346      5.68848     15.34742        -0.351627      0.172139     -1.743562
Ti       9.55122      5.71423      6.66034         0.704339      0.477613      0.954733
Ti       9.54007      5.66076     11.02004         0.015154      1.532553      0.221979
Ti       9.54611      9.50892      2.30644         0.237332      0.711954     -1.508133
Ti       9.56210      9.55297     15.40414         0.361929      0.456186     -0.028594
Ti       9.60359      9.55634      6.92142        -0.289149      0.059581     -2.664616
Ti       9.57606      9.57226     11.11559        -0.481862     -0.173649     -0.898203
O       1.70920      1.90802      0.61402         0.567123      0.122046     -0.030926
O       2.11754      1.91415     13.59788        -0.438944     -0.600209      1.257852
O       1.76173     13.33608      0.50846         0.523153      0.215482      1.611586
O       1.99477     13.30545     13.80527         0.081741      0.306558     -0.995536
O      13.56981      2.05566      0.51047        -0.439870     -0.542009      0.812557
O      13.56759      1.97832     13.62142        -0.037362     -0.421250     -0.781499
O      13.31141     13.48940      0.54691         0.090112      0.068792      0.902208
O      13.48531     13.31058     13.63364        -0.323659      0.114617      0.047098
O       2.11207      1.99448      4.87929         0.109310     -0.472705      0.583011
O       1.87704     13.48953      4.79348         0.302883      0.006121      0.243422
O      13.34567      1.97093      4.94425         0.265989     -0.382118      0.530981
O      13.41662     13.33529      4.93946         0.256709      0.227812      0.657907
O       1.99749      1.88051      9.33421        -0.292558      0.255048      0.594846
O       1.87591     13.39172      9.22450         0.358594      0.131438      1.276269
O      13.49381      1.82633      9.18794        -0.055599      0.264998      1.803516
O      13.45410     13.56905      9.16794        -0.118184     -0.240081      1.050155
O       1.88595      5.80204      0.44332         0.218632     -0.339965      0.235627
O       1.82762      5.72497     13.55223         0.455272      0.587444      0.000698
O      13.42742      5.68913      0.56727        -0.271619      0.124788     -0.891295
O      13.41818      5.81232     13.63531         0.180930      0.019153      0.916098
O       1.85939      5.72205      5.02833         0.271646      0.358449     -0.216906
O      13.60248      5.72003      4.93387        -0.421229      0.060159      1.580460
O       2.04568      5.98036      9.17952        -0.604213     -0.922419      1.843658
O      13.26522      5.79383      9.07929         0.890326     -0.044159      1.358833
O       1.73589      9.60600      0.55816         0.737737     -0.067811      1.194225
O       1.80730      9.63861     13.61134         0.103713     -0.079989     -1.301813
O      13.30884      9.67607      0.56094         0.032647     -0.250907     -0.419086
O      13.42110      9.65495     13.67954         0.162637      0.174735      0.355373
O       1.80222      9.55451      4.84576         0.238311      0.107236      0.119334
O      13.32307      9.68558      4.99028         0.274414     -0.053565      0.775592
O       1.83214      9.59536      9.14760         0.121625      0.072213      1.457082
O      13.34762      9.51150      9.12155         0.340963      0.114160      1.431929
O       5.91737      2.01129      0.40678        -1.019004     -0.156126      1.650851
O       5.81814      1.79118     13.67802        -0.395155     -0.002202      1.239866
O       5.98852     13.23157      0.59387        -0.587659      0.328011      0.039693
O       5.70082     13.56245     13.78328        -0.159663     -0.160668     -0.551187
O       5.74087      1.90807      4.85072         0.269115     -0.216937      0.918398
O       5.85837     13.50951      4.94689        -0.203449     -0.402724     -0.259298
O       5.80612      1.83640      9.25902         0.286766      0.300159      0.584901
O       5.55370     13.43289      9.31532         0.397543     -0.028678     -0.804316
O       5.77472      5.72775      0.55561        -0.219820     -0.049178     -0.084805
O       5.74407      5.78567     13.61038        -0.418843      0.157448      1.372844
O       5.78500      5.66841      4.87217        -0.124044      0.499115      0.381361
O       5.88404      5.89097      9.28288        -0.515407     -0.259001      0.238681
O       5.60938      9.65325      0.52164         0.038803     -0.015981     -0.021418
O       5.73625      9.53378     13.69826        -0.056696      0.379277      0.263041
O       5.76704      9.48895      4.93567        -0.199189      0.311591      0.845193
O       5.71991      9.71383      9.34929         0.224561     -0.621427     -0.338036
O       9.82701      1.90598      0.48059        -0.675821     -0.131826      0.717355
O       9.46825      1.96987     13.59335         0.343836     -0.323607      0.639739
O       9.75643     13.43041      0.52325        -0.549093      0.055570      1.199740
O       9.67448     13.50439     13.65134         0.081011      0.085065      1.129525
O       9.75537      2.08870      4.79110        -0.783492     -0.757320      1.411205
O       9.68025     13.47027      4.95164        -0.508951     -0.505633     -0.267708
O       9.38577      1.78303      9.35219         0.591906      0.457358      0.486780
O       9.59681     13.47612      9.30011         0.038345      0.290592     -0.334537
O       9.63767      5.79077      0.59988        -0.206117      0.063073      0.768512
O       9.75267      5.48108     13.57314        -0.610715      1.164988      0.522631
O       9.71772      5.86895      4.92091        -0.794744     -0.525317     -0.232808
O       9.48896      5.72498      9.28229         0.261557     -0.072191     -0.412907
O       9.61950      9.35144      0.46222        -0.170009      0.651164      1.656296
O       9.55686      9.70839     13.61969         0.158367     -0.255049     -0.009167
O       9.60100      9.51271      5.09265        -0.313174      0.407097      0.403739
O       9.69087      9.61289      9.30762        -0.718045     -0.069894      1.337905
O       3.85714      1.99721      2.65615         0.170761     -0.567684     -0.210966
O       3.92377      1.79392     15.95284        -1.126154      0.688835     -0.528712
O       3.97776     13.36833      2.73475        -2.131940      0.261138     -0.079763
O       3.73679     13.49014     15.98462         2.623543     -0.308159      0.043091
O      15.34841      1.82123      2.84799        -0.244647      0.227767     -0.371645
O       0.05690      1.98962     15.78822         0.694562     -0.732040     -0.144074
O      15.33388     13.61180      2.74374         0.167739     -1.040448     -0.582084
O      15.34989     13.49024     15.82316        -0.460955     -0.287849      0.130413
O       3.97817      1.97922      7.20947        -0.709387     -0.286833     -0.736896
O       3.80230     13.41318      7.06317         0.454747     -0.134558     -0.184893
O       0.04659      1.80911      6.94763         1.011760      0.635839      0.524387
O       0.15386     13.41699      7.08965        -1.996394      0.326496     -0.269586
O       3.86655      1.82995     11.46004         0.222462      0.218523      0.307496
O       3.83590     13.52625     11.44606        -1.225378     -0.156067      0.733562
O       0.03874      1.91415     11.48728        -0.661195      0.104899     -0.083330
O      15.34560     13.46561     11.45348        -0.117607     -0.684073     -0.048752
O       3.81963      5.90536      2.59907        -0.589840     -0.781464      0.210035
O       3.81690      5.90713     15.91446         0.088303     -1.254306     -0.592239
O      15.29588      5.76515      2.70602         0.631602     -0.149867     -0.196460
O       0.01984      5.78717     15.80372        -0.108756      0.358579     -0.146884
O       3.89180      5.76943      7.15964        -0.011395     -0.323184     -0.471946
O       0.03748      5.70993      7.19018        -0.745299      0.285766      0.105406
O       3.87199      5.90786     11.36729        -0.980458      0.182257      0.388356
O      15.34940      5.65363     11.30595         0.674805      0.737430     -0.046676
O       3.79518      9.49542      2.77315        -0.966609      0.329768     -0.050412
O       3.74719      9.73093     15.88305         0.515883     -0.830995     -0.442368
O      15.23407      9.66531      2.64089         1.344045     -0.357226      0.333533
O       0.00450      9.63786     15.92152        -0.981401     -0.425856     -0.550994
O       3.79601      9.49753      7.02348        -0.034482      0.505897     -0.096200
O      15.30591      9.64713      7.11776         0.378048     -0.562683     -0.319125
O       3.86337      9.48351     11.42887        -1.316773      0.188639      0.085188
O      15.27133      9.69442     11.36315         0.831695     -0.473447     -0.039899
O       7.64897      1.88666      2.56967         0.615541      0.272438      0.422089
O       7.72895      1.96293     15.90712        -0.612831     -0.329866     -0.330681
O       7.75901     13.42344      2.77164        -0.201535     -0.065099     -0.020676
O       7.70118     13.43652     15.81039        -0.416411     -0.301210      0.094925
O       7.76109      1.84770      7.15071        -0.948211      0.204798     -0.540580
O       7.69592     13.36970      7.07942        -1.367328     -0.109014      0.247987
O       7.60020      1.97399     11.54503         0.726386      0.063414     -0.562536
O       7.68217     13.45631     11.48645        -0.320834      0.058008      0.061819
O       7.69516      5.76987      2.77064        -0.293093      0.134132      0.170395
O       7.69870      5.72050     15.78481        -0.592567      0.571246     -0.074264
O       7.67675      5.75686      7.05862         0.425019      0.180549     -0.241470
O       7.67997      5.71123     11.46158        -0.371246      0.182158      0.192589
O       7.51246      9.70066      2.62303         1.623531     -0.697290      0.322621
O       7.67350      9.59916     15.88655        -0.040482      0.003407     -0.301794
O       7.66435      9.54280      7.29059        -0.882605      0.260471     -0.484009
O       7.70154      9.62152     11.49927         0.365258      0.328171     -0.084163
O      11.53621      2.07056      2.81689        -0.104555     -0.767831     -0.877378
O      11.53802      2.03186     15.57117         0.026546     -0.753503      0.669014
O      11.54746     13.27908      2.80231        -1.273643      1.045007     -0.328222
O      11.52043     13.52955     15.85269         0.271103      0.053747     -0.346429
O      11.49090      1.89371      7.07959        -0.488952     -0.415203      0.375559
O      11.48077     13.36289      7.14231         0.395573      0.358054     -0.074278
O      11.57601      2.07842     11.44899        -0.460958     -1.241600     -0.564839
O      11.54145     13.46328     11.44251        -0.412029      0.018437     -0.070623
O      11.47104      5.77530      2.84219         0.143746      0.013182     -0.473234
O      11.45444      5.58325     15.84867         1.327366      1.192517     -0.339101
O      11.54534      5.65371      7.12580        -0.608007      0.064879     -0.367918
O      11.60002      5.73630     11.33087        -1.610968      0.203262      0.293115
O      11.48477      9.63397      2.82164        -1.258500     -0.216904     -0.349453
O      11.49429      9.58589     15.79536        -0.261914      0.206890     -0.009279
O      11.45381      9.73177      7.24495         0.852854     -0.577237     -0.290600
O      11.55406      9.60029     11.39883        -1.095287      0.130447      0.210493
O       1.96301      3.80789      2.73002        -0.324929      1.021924     -0.567727
O       1.92258      3.87921     15.58694         0.967524     -0.822451      0.811019
O       2.01433     15.32925      2.60626         0.159168     -0.531376      0.282552
O       1.97566     15.30093     15.87507        -0.392771      1.670328     -0.037423
O      13.44746      3.85038      2.75306        -0.016953     -0.066047     -0.211826
O      13.52812      3.83090     15.64214         0.061389      0.873540      0.743705
O      13.31263      0.07671      2.69083         0.006835     -1.026444     -0.022073
O      13.48061      0.01371     15.74789        -0.120379      0.172888      0.106228
O       1.99624      3.84039      7.15942        -0.094220     -0.531721      0.046041
O       2.04582      0.05705      7.11359        -0.101375     -0.525376     -0.600116
O      13.39499      3.69286      7.17681         0.697127      1.553365      0.081624
O      13.49394     15.33096      7.07069        -0.326594     -1.210663      0.017643
O       1.96077      3.82893     11.56194         0.332518      0.611052     -0.714486
O       1.85799     15.29200     11.39134         0.230282      0.416434      0.475068
O      13.46283      3.90228     11.37085         0.236482     -1.197078     -0.221361
O      13.44619     15.31505     11.49279        -0.157132      0.792046     -0.105023
O       1.82502      7.60497      2.64798         0.132368      0.826468      0.140555
O       2.00806      7.73967     15.84284        -0.745671     -0.413761     -0.366046
O      13.35454      7.68857      2.72569         0.200207     -0.201625     -0.023567
O      13.38314      7.73897     15.79826         0.231339     -0.983369      0.193195
O       1.91658      7.69121      7.07098        -0.348290      0.682483     -0.034452
O      13.27133      7.69918      7.02071         0.678428     -0.682667      0.051546
O       1.77458      7.71528     11.42815         0.461371      0.061275     -0.285174
O      13.44569      7.61403     11.44888         0.411995      1.493810     -0.480623
O       1.91942     11.44652      2.82400         0.113585      0.808305     -0.622317
O       1.82858     11.42252     15.86871         0.271308      1.532981      0.235303
O      13.35568     11.49459      2.68973         0.616158      1.284301      0.124863
O      13.38617     11.55962     15.88086         0.250984     -0.152325     -0.218085
O       1.86051     11.51551      7.07321         0.604084     -0.279819     -0.697817
O      13.39543     11.54063      7.26133         0.518160      0.174799     -0.496246
O       2.02449     11.49975     11.39058        -0.307953     -0.153693     -0.071726
O      13.44922     11.50329     11.31304        -0.386870      0.518460      0.085775
O       5.75813      3.89125      2.76920        -0.031041     -0.643831     -0.382624
O       5.80808      3.81429     15.72952        -0.894930      0.568928      0.142262
O       5.80272     15.34688      2.61981        -0.331728      0.171229      0.065090
O       5.89327     15.33497     16.02371        -0.807758     -0.570260     -0.477055
O       5.89742      3.81163      7.10713        -0.385064     -0.029089     -0.099453
O       5.78015     15.34834      7.13147        -0.072413     -0.626687     -0.389991
O       5.65619      3.95864     11.38448         0.060853     -1.339543      0.187453
O       5.79988     15.35121     11.40410        -0.103607      0.548947      0.484310
O       5.75208      7.64876      2.70525        -0.019074      0.418001      0.178905
O       5.65505      7.74765     15.79366         0.278489     -1.116111      0.387680
O       5.73345      7.57694      7.13943         0.353584      1.212514     -0.322863
O       5.86411      7.78853     11.63372        -0.482594     -1.556004     -0.806111
O       5.68270     11.47336      2.73584         0.099831     -0.310312      0.532656
O       5.66387     11.48541     15.79635         0.467609      1.360394      0.231123
O       5.69130     11.45672      7.14985         0.243119      0.437506     -0.462722
O       5.62464     11.54275     11.53590         0.765863     -0.089981      0.231102
O       9.57795      3.80615      2.67615        -0.145807      0.608999      0.058660
O       9.57507      3.80533     15.67939        -0.287789     -0.022718      0.955630
O       9.61972      0.02583      2.68375         0.278310     -0.884069     -0.050139
O       9.46108      0.06823     15.81817         1.036110     -1.485057     -0.057067
O       9.57148      3.80927      7.08558        -0.157640      0.226847     -0.034473
O       9.55126     15.34656      6.95213         0.201034      0.134226      0.481530
O       9.61244      3.86409     11.40016        -0.203173     -1.241704     -0.047048
O       9.57501      0.06924     11.51233         0.465562     -0.457297      0.099023
O       9.56225      7.73656      2.77265        -0.150044     -0.579022      0.100303
O       9.62928      7.62686     15.72089        -0.100186      0.163736     -0.048667
O       9.62516      7.66005      7.14471        -0.029282     -0.997900      0.212766
O       9.53274      7.59583     11.48029         0.629519      1.517767     -0.217266
O       9.52771     11.45147      2.74041         0.204300      0.638245     -0.171318
O       9.63757     11.55002     15.74591        -0.079172     -0.169976      0.317927
O       9.54060     11.46630      7.29658        -0.120463      0.970345     -0.465751
O       9.49296     11.64917     11.50967         0.877558     -1.614538     -0.164363
