  # total energy = -7882.01333581 
CRSYTAL
PRIMVEC
    15.3600000000000000    0.0000000000000000    0.0000000000000000
     0.0000000000000000   15.3600000000000000    0.0000000000000000
     0.0000000000000000    0.0000000000000000    17.440000000000000
PRESSURE
1.54582 1.55903 3.30239 -0.216918 -0.380952 -0.058911
PRIMCOORD
320 1
Pb       3.84393      3.85600      4.24929        -0.171750     -0.397885      0.189180
Pb       3.76713      3.89772     17.37124        -0.137692     -0.188919     -0.342104
Pb       3.88861     15.35432      4.23956        -0.696664      0.033177      0.236432
Pb       3.97322      0.00251      0.02624        -0.643592     -0.014770     -0.286955
Pb      15.27188      3.93173      4.30754         0.089549     -0.541719     -0.602454
Pb      15.20998      3.71344     17.35809         0.070179      0.752806      0.010232
Pb      15.26583     15.34366      4.37286         0.519967     -0.045985     -0.378444
Pb       0.15797      0.03640     17.38608        -0.607524     -0.378695      0.218309
Pb       3.98135      3.88687      8.58415        -0.738638     -0.518462      0.228716
Pb       3.79151     15.27390      8.70969        -0.064845      0.320204     -0.128813
Pb       0.16053      3.71511      8.68024         0.243648     -0.232005     -0.142067
Pb       0.16088     15.29226      8.58893        -0.235317      0.154529      0.825873
Pb       3.91052      3.94360     13.08503        -0.542777     -0.030282      0.096604
Pb       4.02693      0.01634     13.21955        -0.677010     -0.257628     -0.333266
Pb      15.26146      3.89648     12.93348         0.248313     -1.023774      0.957685
Pb      15.31139      0.01245     13.01653         0.648313      0.151381      0.184276
Pb       3.77625      7.65611      4.33286         0.185516     -0.264123     -0.111586
Pb       3.87604      7.77890     17.43158        -0.292709     -0.423916      0.164108
Pb      15.18176      7.46841      4.30404         0.612370      0.826813     -0.100089
Pb       0.21419      7.63045     17.42564        -1.120857     -0.049488      0.176613
Pb       3.77121      7.61301      8.64152         0.472230     -0.300615      0.085141
Pb      15.29484      7.71715      8.63479         0.555711      0.192285     -0.078469
Pb       3.84878      7.81773     13.09306        -0.165274     -0.791588     -0.392986
Pb      15.28712      7.74861     12.92455         0.352065     -0.639518      0.332092
Pb       3.88035     11.40496      4.37978        -0.065454      0.560433     -0.089113
Pb       3.69057     11.46191      0.01573        -0.060414      0.418261     -0.460864
Pb      15.32407     11.38621      4.32040        -0.186990      0.000861      0.042529
Pb       0.08960     11.38750      0.10094        -0.340198      0.611538     -0.928033
Pb       3.76191     11.47360      8.66060        -0.131790      0.273024      0.108008
Pb       0.09927     11.64695      8.60806        -0.093880     -0.929519      0.199802
Pb       3.73984     11.58659     13.01513         0.197112     -0.042348      0.165484
Pb      15.11924     11.44154     12.96311         1.315549      0.435150      0.597447
Pb       7.56881      3.95327      4.23457         0.348330      0.064358      0.408884
Pb       7.69320      3.81964     17.39156        -0.214434     -0.101409     -0.522319
Pb       7.55080     15.31980      4.23468         0.311010     -0.047139      0.658882
Pb       7.82454     15.25149      0.01833        -0.271966      0.491032     -0.363143
Pb       7.70503      3.80441      8.65005        -0.418465     -0.087581      0.595866
Pb       7.70171      0.09074      8.69280        -0.202288     -0.613163     -0.147915
Pb       7.51567      3.66315     13.01230         0.244225      0.797370     -0.068735
Pb       7.72350     15.08598     13.13641        -1.206473      0.581406     -0.015547
Pb       7.62235      7.79456      4.37583        -0.121940     -0.508515     -0.276526
Pb       7.74564      7.52612     17.36204        -0.275663      0.599092      0.560288
Pb       7.66617      7.58270      8.72276        -0.265135     -0.047954     -0.002154
Pb       7.77537      7.63892     13.09545        -0.533619      0.024164     -0.598941
Pb       7.65440     11.49215      4.28283        -0.088523      0.273688     -0.227683
Pb       7.68027     11.44437     17.31802         0.295342      0.094865      0.424633
Pb       7.75629     11.46495      8.79960        -0.448173      0.331739     -0.144322
Pb       7.57625     11.53052     13.06583        -0.522283     -0.453023      0.031607
Pb      11.58974      3.92385      4.35967        -0.710545     -0.253045      0.090168
Pb      11.30001      3.78349     17.35352         0.607920      0.041186     -0.628331
Pb      11.52703      0.13513      4.32924        -0.454729     -0.430461      0.129821
Pb      11.67767      0.06001     17.35048        -0.260939     -0.109779     -0.303578
Pb      11.69045      3.68877      8.67632        -0.950726     -0.037719      0.138330
Pb      11.51928      0.00802      8.66046        -0.466521     -0.346579     -0.290284
Pb      11.41586      3.90729     12.87153         0.209446     -0.499609      1.057748
Pb      11.42671     15.30645     13.11738         0.666005      0.409641     -0.425226
Pb      11.53563      7.66268      4.40192        -0.103608      0.395814      0.092361
Pb      11.42510      7.68688     17.32562         0.648863      0.170942     -0.129875
Pb      11.48502      7.59696      8.66647        -0.356915      0.759004      0.018854
Pb      11.61896      7.67557     13.02482        -0.362351      0.185813     -0.404936
Pb      11.39495     11.56525      4.35842         0.572127     -0.168925     -0.021223
Pb      11.62452     11.56714     17.40251        -0.190371     -0.355800      0.243677
Pb      11.36010     11.52968      8.75120         0.729130     -0.090481     -0.648639
Pb      11.41582     11.59316     13.06428         0.324489     -1.104951      0.045647
Ti       1.84074      1.93576      2.29600        -0.110657     -0.466877      0.691784
Ti       1.87520      2.00744     15.37529        -0.147548     -0.793023      0.792804
Ti       1.79098     13.39468      2.41340         0.418000      0.233154     -0.644188
Ti       1.91727     13.54462     15.40986        -1.091285     -0.821645      1.199361
Ti      13.39070      1.91180      2.33235         0.255410      0.129560      0.551736
Ti      13.41008      1.96990     15.24758        -0.383819     -0.094169      1.998201
Ti      13.34400     13.47136      2.38418         0.640983     -0.535323      1.018479
Ti      13.46861     13.39898     15.36335         0.525299      0.155536      1.788377
Ti       1.87210      1.83320      6.52857         1.183782      0.328360      1.624011
Ti       1.87997     13.36357      6.50093         0.994703      0.167947      1.837457
Ti      13.46809      1.83747      6.67945        -0.330623      0.320335      0.390803
Ti      13.38589     13.40619      6.63505        -0.975735     -0.981100      0.401133
Ti       1.92328      1.94527     11.08808        -0.798142     -1.355536      0.761233
Ti       1.85368     13.43739     11.10756         0.684634      0.444488      0.533976
Ti      13.32438      1.77066     11.06638         1.164958      0.797053      1.123056
Ti      13.38211     13.39366     11.05673         1.115916      0.403687      1.998143
Ti       1.89719      5.69522      2.32147        -0.776834      0.793660      0.480548
Ti       1.87160      5.80966     15.38861         0.003924     -0.601186     -0.370333
Ti      13.29472      5.75664      2.18578         0.662400     -0.732117      0.375782
Ti      13.40365      5.77210     15.34056         0.099692     -0.176352      1.428154
Ti       1.79187      5.70630      6.57765         1.989942     -0.661573      1.319300
Ti      13.42000      5.70428      6.77479         0.134879     -0.068801      0.349437
Ti       1.93013      5.69948     11.00328         0.798428      0.247980      0.456986
Ti      13.43633      5.69068     10.91053        -0.078552     -0.013858      3.371800
Ti       1.97203      9.54330      2.41560        -0.851288     -0.562685      1.534439
Ti       1.92287      9.60372     15.31167        -0.509566      0.055405      1.559534
Ti      13.44266      9.59663      2.31889        -0.221930      0.291718      0.845101
Ti      13.45246      9.51748     15.39368         0.073079      0.610176      1.854809
Ti       1.98917      9.44468      6.66028        -1.033833      1.175526      0.157607
Ti      13.43458      9.57273      6.73604        -0.400988      0.263893      0.284729
Ti       1.95642      9.55642     11.01868         0.164559      0.926699     -1.105750
Ti      13.45906      9.59079     10.92464        -1.775140     -0.088331      0.888671
Ti       5.77192      1.92303      2.25729        -1.455132     -0.134866      0.242399
Ti       5.69250      1.92495     15.49381         0.877936     -0.595906     -0.131994
Ti       5.64916     13.38697      2.30199        -0.118567      0.215265      0.700549
Ti       5.71130     13.37301     15.52813         0.054290      0.389325     -1.389097
Ti       5.64973      1.84321      6.64923        -0.342198      0.028885      1.092366
Ti       5.71151     13.40337      6.70588        -0.294880      0.062773     -0.162255
Ti       5.66797      1.83040     11.09990        -0.807924      0.183309     -0.326739
Ti       5.66619     13.35258     11.02626         0.302815      0.450548      1.281930
Ti       5.66864      5.74370      2.17434         0.675097      0.596678      1.453852
Ti       5.73711      5.79822     15.44684        -0.553421     -0.995145     -0.562724
Ti       5.72343      5.72158      6.61757        -0.411092      0.239048      0.356028
Ti       5.69793      5.76133     11.06706         0.451653     -0.564241      0.316716
Ti       5.78675      9.58156      2.28869        -0.261573     -0.529439      0.558296
Ti       5.79017      9.51531     15.39477        -0.210136      1.029180      0.468797
Ti       5.80100      9.60267      6.72832        -0.735288     -0.337664     -0.329509
Ti       5.73885      9.53100     10.97266         0.333798      0.414656      1.309928
Ti       9.51299      2.00239      2.39783         0.260618     -0.151146      0.334950
Ti       9.52075      1.91235     15.24330        -0.059610      0.400740      2.191577
Ti       9.53040     13.49099      2.34665         0.325113     -0.443472      0.206979
Ti       9.62303     13.43839     15.40064        -0.010979     -0.390155      1.822905
Ti       9.51863      1.91551      6.67602         0.274022     -0.617981      1.074262
Ti       9.45241     13.38140      6.65999         0.940279      1.189750      2.117518
Ti       9.45403      1.78505     11.09622         0.888907      1.089611      0.251773
Ti       9.59153     13.32198     11.09405        -1.382500      0.842481     -1.578924
Ti       9.55871      5.85511      2.36117        -0.653411     -1.084859      0.360202
Ti       9.57922      5.86954     15.26175         0.059848     -0.823447     -0.067303
Ti       9.58167      5.70383      6.76986        -0.541435     -0.614943     -0.835293
Ti       9.58799      5.76092     10.99761        -0.996102     -0.607754      1.930335
Ti       9.66172      9.58769      2.32803        -0.668876      0.548374      0.540283
Ti       9.57654      9.65799     15.38675         0.877666     -0.437028      0.199949
Ti       9.49188      9.59017      6.62384         1.858782     -0.604902      0.722206
Ti       9.51956      9.55328     11.09147         1.128214     -0.799856      0.799292
O       1.87761      1.88421      0.52296        -0.157885      0.275030      0.405092
O       1.66079      1.87486     13.69191         0.781961      0.219322     -1.087576
O       1.93059     13.40720      0.61456        -0.318220     -0.014700      0.316657
O       1.93882     13.47997     13.71068        -0.244721     -0.073678     -1.236026
O      13.38136      1.90343      0.61246        -0.187422     -0.024919     -1.278060
O      13.33063      1.95452     13.55335        -0.148893     -0.451518     -1.341665
O      13.31826     13.37269      0.65613         0.101955      0.250221     -0.372113
O      13.40316     13.46717     13.63236        -0.226098     -0.678998     -0.710915
O       1.83938      1.82342      4.82622         0.001495      0.212487     -1.294109
O       1.86259     13.35286      4.79656         0.104212     -0.119931     -1.144164
O      13.43986      1.83603      4.94187         0.012964     -0.030418     -0.245851
O      13.27402     13.48269      4.89831         0.418090      0.008794      0.203164
O       1.86982      1.78645      9.34602        -0.012123      0.438072     -0.479419
O       2.04521     13.44885      9.35524        -0.712235     -0.153581     -0.492692
O      13.38111      1.84396      9.34529        -0.002269      0.089890     -1.703118
O      13.37349     13.25810      9.38407        -0.113132      0.100267     -2.002071
O       1.79876      5.74479      0.60753         0.428705     -0.166613     -1.791195
O       2.01910      5.88189     13.64718        -0.505097     -0.184083      0.525344
O      13.22723      5.78284      0.44395         0.042002     -0.252042      0.607649
O      13.41774      5.72261     13.61757         0.025808      0.670087     -1.152913
O       1.89896      5.79005      4.85527        -0.196577     -0.249535     -0.760341
O      13.38657      5.73462      5.03444        -0.124128      0.117559     -1.059575
O       1.97529      5.57081      9.23679        -0.355212      0.342051      0.077006
O      13.49858      5.59999      9.23169         0.184950      0.088874     -1.493830
O       1.90805      9.50341      0.70983         0.124647      0.115696     -2.268627
O       1.91857      9.56122     13.59942        -0.146106     -0.190133     -1.423772
O      13.38530      9.68877      0.57456         0.207888     -0.329172      0.771671
O      13.47317      9.46194     13.66049        -0.092443      0.133056     -1.260356
O       1.98302      9.40133      4.89365         0.058799      0.390138      0.284761
O      13.42748      9.38569      5.01061         0.109974      0.116499     -0.798382
O       1.98658      9.68302      9.21124        -0.182153     -0.558141      0.868665
O      13.44239      9.71002      9.21535         0.102952     -0.254159     -0.949865
O       5.73157      1.83480      0.50564         0.111855      0.285448     -0.346500
O       5.76026      1.84719     13.73981        -0.210784      0.235407     -1.013844
O       5.53893     13.46251      0.55756         0.530399     -0.292606     -0.551250
O       5.76256     13.26692     13.71274        -0.050099      0.431808      0.912317
O       5.58723      1.81693      4.93791         0.156368     -0.064176     -1.312280
O       5.59043     13.29865      4.91884         0.505729      0.415077      0.336421
O       5.57579      1.91136      9.35131         0.280884     -0.250523      0.011720
O       5.70561     13.43502      9.31598         0.038786     -0.099746     -1.025349
O       5.78419      5.74071      0.45666        -0.388541     -0.211722     -0.818496
O       5.70114      5.71712     13.67244         0.002941      0.281995      0.062469
O       5.65177      5.82049      4.87074         0.484281     -0.256172     -0.558842
O       5.63192      5.57215      9.32813         0.146572      0.610271     -0.775616
O       5.78535      9.49034      0.55537        -0.106693      0.672595     -0.266288
O       5.74252      9.62665     13.66092        -0.114568     -0.403864     -0.061047
O       5.74826      9.59564      4.93260         0.215543     -0.059310      0.241193
O       5.81987      9.46681      9.24957        -0.041252      0.484877     -0.847486
O       9.38980      2.04817      0.64084         0.491411      0.006044      0.058944
O       9.52990      1.89827     13.53401         0.036735     -0.515120     -1.197402
O       9.46470     13.44603      0.61533         0.412880      0.084580     -0.836574
O       9.52090     13.24438     13.66750         0.469969      0.688844     -1.106318
O       9.55796      1.76534      4.98141        -0.221016      0.595527     -1.306810
O       9.39822     13.36096      4.96920         0.269620      0.016802     -1.916842
O       9.61555      1.85993      9.35818        -0.400074     -0.221537     -0.537700
O       9.41758     13.44510      9.30386         0.725351     -0.391936      0.790324
O       9.49162      5.76392      0.61125         0.599189     -0.016298     -1.014129
O       9.47745      6.03949     13.51354         0.610848     -0.595774      0.490538
O       9.48226      5.50949      4.97432         0.298042      0.991973      1.350881
O       9.52721      5.75310      9.29371         0.156827     -0.090386     -1.502286
O       9.53757      9.68581      0.60770         0.167494     -0.557016     -0.847563
O       9.59839      9.51550     13.65312         0.118816      0.204464     -0.997358
O       9.56196      9.58876      4.87956        -0.503022     -0.132530     -0.096044
O       9.43935      9.62767      9.38692        -0.016921     -0.114633     -2.362569
O       3.77328      1.96837      2.70980         0.094760     -0.421887     -0.228207
O       3.80960      1.92145     15.77960        -0.564732      0.305270      0.205383
O       3.73820     13.34334      2.74214         0.829769      0.175205      0.072549
O       3.75678     13.41564     15.81522         1.019796     -0.152914      0.363634
O      15.24988      1.97815      2.68248         0.843091     -0.058013      0.276064
O      15.28552      2.03012     15.75148        -0.721138     -0.859575      0.297700
O      15.27770     13.35813      2.81198        -0.227601      0.032738      0.001755
O      15.34691     13.39678     15.94135        -0.054545      0.093950     -0.411882
O       3.75171      1.84261      7.12248         0.043263      0.067232     -0.455439
O       3.78436     13.39432      7.15575        -0.072181     -0.259407     -0.603746
O       0.01142      1.80418      7.12157        -0.765872      0.262330     -0.120135
O       0.06017     13.43508      7.06721        -1.274155     -0.478557     -0.367602
O       3.77646      1.78748     11.60301         0.243809      0.128054      0.036176
O       3.81749     13.42753     11.54862        -0.382579      0.088553     -0.124619
O      15.31351      1.95035     11.44749        -0.320251      0.050584      0.011989
O      15.31782     13.34904     11.52383        -0.740902     -0.140940     -0.316294
O       3.75837      5.60490      2.68273         1.411578      0.264233     -0.287351
O       3.82113      5.85120     15.77659        -0.403655     -0.938090      0.556129
O      15.33707      5.71813      2.67543        -1.898093      0.044413      0.238872
O      15.27500      5.70871     15.80675         0.351327      0.467239     -0.104159
O       3.80073      5.83701      7.02689         0.148045     -0.777395      0.009076
O       0.01371      5.72219      7.03859        -0.786145      0.270410      0.362107
O       3.76169      5.75671     11.58576         0.472642      0.212935     -0.355572
O       0.10144      5.69914     11.59150        -1.717211      0.642803     -1.481742
O       3.83371      9.63041      2.82583         0.748335     -0.025414     -0.451544
O       3.84414      9.49672     15.82390        -0.213028      0.369834     -0.104460
O      15.35830      9.51067      2.84723        -1.133326     -0.140973     -0.462665
O       0.02022      9.52364     15.86527         0.057610      0.174912     -0.199477
O       3.89830      9.57619      7.09685        -0.521882     -0.092558     -0.092640
O       0.05545      9.58501      7.05895        -0.539196     -0.562299      0.326768
O       3.83540      9.68330     11.44720        -0.270151     -0.616541     -0.137547
O      15.30830      9.58628     11.34410         0.414621      0.022309      0.210659
O       7.53567      1.88289      2.80055         1.199781      0.382920      0.018254
O       7.62811      1.91579     15.77107         1.574520     -0.089794      0.141101
O       7.66862     13.41194      2.69583        -1.095686      0.021668      0.234600
O       7.68128     13.46956     15.84593         0.294209     -0.328364      0.081453
O       7.58647      1.92925      7.08072         0.563821     -0.172048      0.071319
O       7.63165     13.51452      7.16603        -0.332390     -0.616018     -0.234987
O       7.52148      1.86814     11.44399         0.816779      0.315347      0.052013
O       7.69598     13.36753     11.55675        -0.645847     -0.440535     -0.186313
O       7.65048      5.71029      2.53605        -1.008217      0.357141      0.913980
O       7.63002      5.73867     15.73525         1.050207      0.389906      0.240765
O       7.63310      5.65948      7.20233         0.106158      0.012252     -0.465007
O       7.61720      5.69654     11.47051        -0.328153      0.171465     -0.186078
O       7.62866      9.47263      2.78468         0.239284      0.574261     -0.162592
O       7.70273      9.51271     15.72352        -0.689444      0.464862      0.406600
O       7.66065      9.59133      7.10298         0.394563     -0.123360     -0.024911
O       7.68035      9.62364     11.51623        -1.693927     -0.197821     -0.030766
O      11.44017      1.95689      2.73526        -0.312658     -0.569949      0.085109
O      11.49648      1.93869     15.86068        -0.511225     -0.548519     -0.368084
O      11.47619     13.45384      2.84409        -0.652333      0.290527     -0.239022
O      11.51452     13.36780     15.90153        -0.184323      0.437375     -0.708524
O      11.51711      1.97752      7.01058         0.204789     -0.830667      0.443533
O      11.44278     13.41018      7.13258         0.210691      0.055428     -0.018759
O      11.44764      1.63579     11.39630        -0.510348      0.550034      0.450637
O      11.48395     13.43849     11.53113        -0.639154      0.156549     -0.056296
O      11.42550      5.71828      2.79925         0.818224      0.005636     -0.256220
O      11.42895      5.86146     15.63884        -0.186266      0.133490      0.344290
O      11.57850      5.68821      7.26096        -1.495976      0.174820     -0.492607
O      11.51871      5.76746     11.48365         0.268378      0.250967     -0.865850
O      11.50115      9.58201      2.85647         0.638388     -0.234634     -0.429167
O      11.53064      9.53282     15.79390        -0.309034      0.315884     -0.015955
O      11.50740      9.42177      6.98184        -1.176376      0.102071      0.673076
O      11.44720      9.53469     11.29897         1.077553     -0.006413      0.700762
O       1.78548      3.83155      2.72576         0.355108     -1.017835      0.270259
O       1.69920      3.83429     15.86521         1.629712      0.956694     -0.108898
O       1.70082     15.31920      2.77927         0.682808      0.586427     -0.463568
O       1.86624      0.06556     15.88364         0.139883     -0.332207     -0.379435
O      13.32988      3.79736      2.76471         0.204888      1.289379     -0.127469
O      13.24729      3.85726     15.66500         0.383903      0.015055      0.522416
O      13.48678      0.01606      2.85603        -0.797185     -0.182633     -0.572386
O      13.38487     15.29882     15.67198        -0.098140      0.857925      0.429916
O       1.84534      3.74338      6.92968        -0.068388      0.790255      0.147664
O       1.86305     15.30136      6.99260         0.330738     -0.457195     -0.136593
O      13.43218      3.80090      7.00216         0.496648     -0.897045      0.522321
O      13.42645     15.22225      7.16515        -0.069338      1.405570     -0.196657
O       1.92755      3.81791     11.46717         0.162866      0.041662     -0.052535
O       1.76466     15.31014     11.52800         0.333944      0.329292     -0.194722
O      13.29367      3.77892     11.51337         0.432922      0.656647     -1.047687
O      13.48224     15.29794     11.49181        -0.494175     -0.478600     -0.162290
O       1.89802      7.58523      2.72948         0.359847      0.639195      0.205404
O       1.88716      7.64730     15.87778         0.130822      0.504608     -0.244980
O      13.28291      7.56032      2.82138         0.524945      0.861362     -0.711269
O      13.41674      7.69644     15.89386        -0.055758     -0.501228     -0.362356
O       1.94999      7.60591      7.12401        -0.518315      0.215890     -0.041251
O      13.39527      7.59746      7.23454         0.650696      0.308350      0.095766
O       1.96292      7.68266     11.36419        -0.381925      0.153423     -0.055568
O      13.43736      7.63431     11.30030         0.271184     -0.205972     -0.089687
O       1.82223     11.43505      2.62562        -0.045405      0.339892      0.701756
O       1.86695     11.43104     15.80576         0.453973      0.399964      0.331093
O      13.42407     11.52039      2.88033        -0.332659     -0.974670     -0.431374
O      13.41061     11.48805     15.89868         0.319794     -0.128197     -0.670174
O       1.85042     11.44138      7.05170         0.761995      0.483080     -0.396279
O      13.28393     11.46703      6.98662         0.714692      0.485826      0.222695
O       1.85646     11.52348     11.38076         0.099073     -0.784519      0.533760
O      13.31840     11.47149     11.58521        -0.110330     -0.167231     -0.591556
O       5.75780      3.81844      2.61279        -0.346725      0.244280      0.068934
O       5.78539      3.79471     15.81963        -0.562659      1.106216      0.315445
O       5.69549     15.33548      2.72950        -0.170909     -0.248426     -0.325837
O       5.76933     15.32092     15.81084        -0.534763     -0.374124      0.365549
O       5.68178      3.78034      6.89802        -0.094529      0.537180      0.506982
O       5.64117     15.31139      7.13079         0.472279     -0.035669     -0.211947
O       5.55910      3.84795     11.42195         0.509393     -1.027998      0.690630
O       5.71825     15.23388     11.59997         0.366091      0.704383     -0.256394
O       5.60663      7.66124      2.59073         0.230856     -0.439197      0.337881
O       5.72243      7.65840     15.98240         0.508604      0.112621     -0.938240
O       5.77412      7.61063      7.08999         0.271427      0.604816      0.028812
O       5.65273      7.65922     11.38688         0.176233      0.472853      0.141995
O       5.83369     11.56034      2.73162        -0.545451     -1.210612     -0.228340
O       5.81470     11.48280     15.83706        -0.429760     -0.453045      0.308170
O       5.81065     11.52205      7.10936        -0.139508     -0.542369      0.115854
O       5.62528     11.48663     11.47763         0.936331     -0.271972     -0.331682
O       9.54745      3.88584      2.89649        -0.233640     -0.895576     -0.624654
O       9.63871      3.83672     15.54758        -0.428332      0.350565      0.592594
O       9.39206      0.02841      2.73401         0.841659      0.230472     -0.061174
O       9.65667     15.33676     15.86418        -0.263080      0.259875     -0.626812
O       9.58766      3.82025      7.29026         0.153411     -0.326437     -0.627816
O       9.54328     15.31600      7.11827         0.235871      0.893738      0.092114
O       9.54968      3.82876     11.47368        -0.048317     -0.647308     -0.229203
O       9.35799     15.31397     11.49518         0.959902     -0.802556      0.145225
O       9.57210      7.69323      2.82635         0.025607     -0.270742     -0.093078
O       9.55732      7.76289     15.82298        -0.118460     -1.398915      0.044329
O       9.46232      7.59112      7.13471         0.519686      0.546759     -0.280341
O       9.50018      7.61590     11.34098         0.001076      0.408580      0.434192
O       9.59928     11.48166      2.69000        -0.317861      0.339757      0.547668
O       9.63648     11.51409     15.78886        -0.483064      0.310095      0.187226
O       9.64244     11.45551      7.09017        -0.719241     -0.095344      0.047506
O       9.53174     11.45201     11.30758         0.633385      1.354068      0.875573
