  # total energy = -7883.41110432 
CRSYTAL
PRIMVEC
    15.3600000000000000    0.0000000000000000    0.0000000000000000
     0.0000000000000000   15.3600000000000000    0.0000000000000000
     0.0000000000000000    0.0000000000000000    17.440000000000000
PRESSURE
0.627393 0.538223 -0.10794 0.199117 0.285798 -0.046244
PRIMCOORD
320 1
Pb       3.74980      3.85465      4.24648         0.384507      0.120451     -0.086524
Pb       3.78598      3.85895     17.33594         0.137998      0.356739      0.621484
Pb       3.82661      0.01759      4.23548        -0.154177      0.249376     -0.134032
Pb       3.87938      0.08527      0.04271        -0.236436     -0.483113     -0.094142
Pb      15.25453      3.84757      4.31378        -0.048923      0.078888      0.094425
Pb      15.26328      3.83448     17.41524         0.222772     -0.079176     -0.062362
Pb      15.22317     15.26911      4.29465         0.675055      0.377822     -0.021596
Pb      15.32115     15.30854      0.03443         0.418877      0.022151     -0.219325
Pb       3.85080      3.81246      8.69750        -0.092168      0.271846     -0.673165
Pb       3.80979     15.27908      8.78713        -0.051093      0.174773     -0.767757
Pb       0.08237      3.67457      8.67442        -0.231279      0.551871      0.117001
Pb       0.08250     15.35538      8.63202        -0.171830      0.204333     -0.701072
Pb       3.71176      3.89721     13.07079         0.717738      0.280824     -0.230471
Pb       3.86452     15.25620     13.21532         0.426239      0.028423     -0.590177
Pb      15.26855      3.82980     13.03056        -0.289562      0.008293     -0.727200
Pb       0.01293      0.04040     13.00586         0.047757      0.322549      0.124834
Pb       3.82275      7.63077      4.26762        -0.101785     -0.280390      0.136353
Pb       3.78637      7.73092     17.42950         0.122433     -0.234370     -0.536355
Pb      15.28060      7.54858      4.35845        -0.531285      0.343815      0.012932
Pb       0.00934      7.72240     17.36406         0.079898     -0.239942     -0.118469
Pb       3.90681      7.55633      8.77288        -0.232275     -0.013333     -1.079489
Pb       0.01990      7.63311      8.75207        -0.231660      0.296102     -0.959809
Pb       3.78093      7.76225     13.05761         0.230741     -0.587594     -0.022936
Pb       0.04610      7.69289     12.93553        -0.375746     -0.054223      0.539380
Pb       3.76537     11.46093      4.28134         0.588336      0.101688     -0.269240
Pb       3.84525     11.42590     17.43754        -0.346382      0.474264     -0.405598
Pb      15.34280     11.49560      4.28462        -0.569741     -0.003216      0.221658
Pb       0.02288     11.44531      0.00559         0.198853      0.495878     -0.560285
Pb       3.72001     11.52296      8.68126         0.038297      0.140286     -0.363668
Pb       0.01742     11.45794      8.63714        -0.027131      0.147527     -0.308355
Pb       3.77562     11.54814     13.05560        -0.203272      0.384722      0.258503
Pb      15.22210     11.44268     13.13896         0.238583      0.282972     -0.517266
Pb       7.63246      3.85558      4.38997         0.217283     -0.319024     -0.068141
Pb       7.65758      3.88007     17.28970         0.309968     -0.057661      0.127854
Pb       7.64404      0.07859      4.19902         0.540741     -0.153779      0.248478
Pb       7.75615     15.33064      0.00401         0.139983      0.048143     -0.591736
Pb       7.69690      3.67324      8.76322         0.821149      0.261722     -0.428726
Pb       7.63122     15.26565      8.64567         0.562496      0.259295     -0.143378
Pb       7.56270      3.72701     13.15398         0.430391      0.273693     -0.728231
Pb       7.62771     15.20286     13.17630        -0.007901      0.247160     -0.781191
Pb       7.57724      7.69946      4.32118         0.085555     -0.156457      0.199956
Pb       7.79174      7.56231     17.40553        -0.245275      0.176811     -0.322444
Pb       7.53708      7.68761      8.68310         0.626059     -0.194977     -0.130493
Pb       7.58683      7.60958     12.99493        -0.023004      0.008269     -0.141080
Pb       7.67782     11.52005      4.31343        -0.289708      0.125997     -0.226796
Pb       7.73672     11.48086      0.03447        -0.096445      0.017721     -0.551289
Pb       7.64262     11.38607      8.72645        -0.085023      0.401903     -0.458081
Pb       7.59873     11.41830     13.11021        -0.111107      0.149249     -0.103329
Pb      11.47879      3.84684      4.41120         0.421618      0.262878     -0.668325
Pb      11.41579      3.81597     17.31182         0.451447     -0.362067      0.197191
Pb      11.38480      0.10198      4.27171         0.337607     -0.451594     -0.128846
Pb      11.66923      0.00339     17.32975        -0.438584      0.156876      0.229081
Pb      11.57070      3.78491      8.75152        -0.400384     -0.257820     -0.480394
Pb      11.48416     15.20209      8.63143         0.220935      0.983063      0.110799
Pb      11.46979      3.87482     13.03877        -0.123166      0.025013     -1.026547
Pb      11.50261     15.30418     13.00202        -0.292329      0.003490     -0.197792
Pb      11.45597      7.75658      4.34729         0.748981     -0.024277     -0.661853
Pb      11.51624      7.59601     17.39822        -0.207472      0.043664     -0.251227
Pb      11.41868      7.57607      8.72149         0.082687      0.600561     -0.378967
Pb      11.59420      7.74496     12.86118        -0.302477     -0.260952      0.106617
Pb      11.43958     11.51519      4.45264         0.483474     -0.221148     -0.662567
Pb      11.61705     11.54740      0.02312        -0.032265      0.033691     -0.826256
Pb      11.42824     11.53134      8.75981         0.299889     -0.380268     -0.375951
Pb      11.39277     11.47231     13.00037         0.718594      0.379314     -0.154372
Ti       1.87641      1.97424      2.31413         0.151586     -0.360288      0.741259
Ti       1.95442      1.88985     15.34729        -0.018427     -0.669397      1.018643
Ti       1.98799     13.41087      2.32654        -0.259056      0.964097     -1.366822
Ti       1.88909     13.43073     15.43496         0.954592     -0.595931      1.136585
Ti      13.41567      1.93229      2.34011         0.078367     -0.373390     -0.333276
Ti      13.57542      1.94942     15.35505        -1.660001     -0.110413      0.389834
Ti      13.48564     13.41805      2.25071        -0.709761      0.118614     -0.027932
Ti      13.51251     13.45845     15.31764        -0.432689     -0.238635      1.717149
Ti       2.06022      1.96191      6.57035        -0.527657     -0.510582      0.806470
Ti       2.04272     13.50819      6.58827        -1.189660     -0.571160     -0.145352
Ti      13.49356      1.94718      6.66372        -0.425482      0.303948      1.407543
Ti      13.48483     13.46778      6.67776         0.053235      0.090498      0.512281
Ti       2.09373      1.92371     11.05214        -1.636542      0.015852     -0.223950
Ti       1.81133     13.48515     11.04068         1.983787     -0.700608     -0.488607
Ti      13.47028      1.90276     10.97639        -0.235078      0.752907     -0.654459
Ti      13.52573     13.57516     10.96213        -2.046103     -1.664470     -0.037112
Ti       1.82992      5.78734      2.26193         1.346385     -0.366160     -0.414982
Ti       1.84803      5.71646     15.35090         1.163121      0.888166      0.112430
Ti      13.48065      5.68705      2.18105        -1.329982      0.891475      2.032484
Ti      13.43681      5.83176     15.32997         0.253191     -0.993585     -0.259164
Ti       1.84584      5.75101      6.70092         0.904914      0.289035      0.917767
Ti      13.42972      5.77152      6.75506         0.665592     -0.530167     -0.627225
Ti       1.87121      5.78799     10.99713         0.809573     -0.164004     -0.573558
Ti      13.47171      5.79955     10.89428        -1.352861      0.208593      0.680588
Ti       1.78902      9.59280      2.33343         0.338289     -0.475810     -0.250048
Ti       1.86077      9.55689     15.39503         0.293033      0.381656      1.873089
Ti      13.36856      9.61243      2.24359        -0.289320     -0.696836      2.683744
Ti      13.36874      9.57410     15.38687         0.636966      0.732645      0.794180
Ti       1.86932      9.61324      6.60172        -0.546003     -0.666299      0.610243
Ti      13.36052      9.67018      6.68296         0.101829     -1.549927      0.044360
Ti       1.87026      9.60998     10.99007        -0.076642      1.328062     -0.278905
Ti      13.46723      9.67692     10.96290        -0.831989     -0.172182     -0.800473
Ti       5.82385      1.96356      2.29414        -1.052154      0.254148     -0.986610
Ti       5.75324      1.98199     15.50259         0.404765     -1.199415     -1.807796
Ti       5.84180     13.48209      2.24623        -1.324938     -0.967268     -0.331569
Ti       5.75821     13.39686     15.53518        -0.329742      0.151081      1.425982
Ti       5.85021      1.87772      6.69270        -0.344466      0.417689     -1.180766
Ti       5.79096     13.44761      6.61070         0.158139     -0.330352      0.542187
Ti       5.80688      1.90759     10.99999         0.406678     -0.443504      0.537105
Ti       5.76304     13.42703     10.97532        -0.334263      0.411328      1.585414
Ti       5.87240      5.73357      2.30142        -2.041143      0.261784      1.082280
Ti       5.74766      5.84003     15.36376        -0.571605     -0.404224     -0.312671
Ti       5.88669      5.65496      6.66612        -1.646396      1.463549     -0.008247
Ti       5.72292      5.74914     11.01743         0.312538      0.168290      2.096834
Ti       5.72264      9.57842      2.29184        -0.172316      0.526830      1.185117
Ti       5.78440      9.55759     15.37945        -0.366387      0.096603      0.457573
Ti       5.65623      9.61400      6.69620        -0.006602     -0.131978      0.624645
Ti       5.62135      9.70752     11.08799         0.815201     -1.685907      0.591323
Ti       9.62584      1.97004      2.21372         0.548294     -0.503853      0.037840
Ti       9.64884      1.80201     15.30392         0.284258     -0.117027      1.246914
Ti       9.70215     13.39067      2.23407        -0.263569      0.920635      0.068857
Ti       9.64088     13.33785     15.38487         0.374398      0.454860      1.223019
Ti       9.67478      1.89967      6.63635        -0.362320      0.085607      0.000931
Ti       9.62075     13.41007      6.62345        -0.557359      0.278788      0.396171
Ti       9.59734      1.89498     11.04997         0.057673      0.187763     -0.606152
Ti       9.61829     13.41904     10.97106        -0.064821      0.757679      1.403752
Ti       9.62347      5.74717      2.36432         0.809646     -0.236357     -0.759571
Ti       9.63388      5.69506     15.24108        -0.480444      0.816336      0.600397
Ti       9.62822      5.79016      6.60042        -0.598290     -0.770995      1.270054
Ti       9.58148      5.79602     11.03982        -0.515331     -1.072449      0.606320
Ti       9.55490      9.58430      2.21441         0.308481     -0.476552      0.568915
Ti       9.59564      9.55422     15.39864        -0.353102     -0.463145      0.535257
Ti       9.50772      9.62220      6.69962         1.547865     -0.502734      0.397524
Ti       9.50564      9.63818     11.09670         0.037263     -0.594734     -1.546072
O       2.00788      1.90723      0.59131        -0.248648      0.153013     -1.046151
O       1.92259      1.65724     13.59036         0.099988      1.079358      0.522808
O       1.96442     13.36690      0.51897        -0.315158      0.205595      1.385132
O       1.95172     13.37286     13.68122        -0.331141      0.286055     -0.693561
O      13.50277      1.89941      0.57787        -0.023568      0.057667     -0.311314
O      13.46588      1.85728     13.60057         0.235836      0.537683     -0.474769
O      13.49096     13.53949      0.45628         0.057341     -0.402552      0.734501
O      13.51858     13.42426     13.58990         0.121801     -0.074804     -0.688126
O       2.04345      1.87929      4.80922        -0.188025      0.516297      0.563720
O       2.01721     13.55571      4.81012        -0.036794     -0.426314      0.039663
O      13.41922      2.03821      4.93129         0.071860     -0.097428     -1.121991
O      13.40727     13.35062      4.94744         0.207384      0.068353     -0.475796
O       2.01879      1.99056      9.27558         0.245041     -0.496941      0.398487
O       2.10881     13.51617      9.24739        -0.712684      0.145138      0.683226
O      13.47199      1.91321      9.18733         0.095335     -0.072100      1.357134
O      13.44854     13.52617      9.20520         0.161239      0.094756     -0.121131
O       1.92545      5.77624      0.49662        -0.203606      0.310884     -0.171603
O       1.90465      5.84162     13.57801        -0.410423     -0.451397     -0.322190
O      13.42394      5.72390      0.45593         0.247861      0.066581     -1.102531
O      13.48789      5.84618     13.54273         0.024861     -0.238463      0.738770
O       1.82841      5.73665      4.96375        -0.137286     -0.172184     -1.025778
O      13.57230      5.56416      4.94808        -0.405952      0.301438      0.596045
O       1.88222      5.76457      9.18791         0.488684      0.205101      1.542262
O      13.47702      5.87182      9.14732        -0.361731     -0.285091      0.125482
O       1.85475      9.56146      0.52193        -0.051000     -0.142294      0.849281
O       1.83731      9.67126     13.71677        -0.094483      0.074183     -2.907823
O      13.31384      9.47770      0.55368         0.261734      0.175370     -2.077646
O      13.41504      9.75381     13.64558        -0.038718     -0.451323     -0.869241
O       1.76751      9.60020      4.85046         0.430566      0.216156     -0.476778
O      13.25953      9.71234      4.89543         0.117848     -0.006843      0.445759
O       1.79587      9.60789      9.23789         0.504826      0.112431     -0.235078
O      13.43602      9.52172      9.20518         0.134937      0.566820      0.261205
O       5.71845      1.97313      0.47337         0.470716      0.084063      1.068005
O       5.68620      1.88786     13.65359         0.344016      0.481619      1.085424
O       5.78867     13.42028      0.45959         0.260072      0.056282      0.324921
O       5.74384     13.45696     13.80002         0.236434     -0.083922     -0.825844
O       5.82732      2.00334      4.88954         0.158443     -0.443786      0.416403
O       5.79959     13.45179      4.87181         0.022715     -0.006486     -0.309208
O       6.03538      1.79966      9.22702        -0.842233      0.213873      0.344493
O       5.74599     13.39288      9.23734        -0.221851      0.213836     -0.327979
O       5.91329      5.74762      0.58132        -0.181361      0.021550     -0.945455
O       5.75595      5.77923     13.57755         0.017232      0.016081      0.315452
O       5.85829      5.82612      4.90338        -0.131272     -0.328649     -0.355157
O       5.80009      5.82847      9.30516        -0.162450      0.044959     -1.435341
O       5.65597      9.54093      0.57918         0.123470      0.020351     -0.899467
O       5.80610      9.63199     13.60741        -0.292736     -0.125404     -0.159066
O       5.63774      9.55313      4.98379         0.246138      0.007966     -1.343371
O       5.69597      9.57032      9.35673        -0.050961      0.527146     -1.245172
O       9.78943      1.90385      0.45081        -0.775150      0.270829      0.490228
O       9.64206      1.84375     13.53248         0.048311      0.085624      0.444775
O       9.63235     13.38345      0.45834         0.167753     -0.071531      0.866063
O       9.59410     13.41708     13.63244        -0.136772     -0.218868      0.038238
O       9.52759      1.75938      4.83868         0.466638      0.651413      0.708310
O       9.51065     13.32622      4.86248         0.226663      0.181502     -0.244032
O       9.64354      2.00776      9.23367        -0.528992     -0.277814      0.784153
O       9.74091     13.46067      9.24520        -0.428192     -0.347449     -1.055938
O       9.56505      5.79193      0.55622         0.053504     -0.163458      0.537884
O       9.48284      5.69941     13.50841         0.591400     -0.123448      0.112845
O       9.53465      5.60932      4.85504         0.522644      0.671296     -0.357456
O       9.57100      5.73420      9.30393        -0.096210      0.064356     -0.703079
O       9.48947      9.56486      0.43381         0.405602     -0.291293      0.799143
O       9.61694      9.62516     13.64851        -0.083676      0.266030     -1.000149
O       9.62783      9.71014      4.94608        -0.111327     -0.309909     -0.565667
O       9.48131      9.69986      9.28823         0.101375     -0.129146      0.729760
O       3.85761      1.94456      2.73951         0.353991      0.176044     -0.242263
O       3.88736      2.00901     15.84132        -1.241229     -0.753734     -0.243010
O       3.85096     13.46187      2.60198         0.182746     -0.036200      0.455063
O       3.88330     13.39915     15.91530         0.034498     -0.123251     -0.390107
O      15.29582      1.98436      2.72070         0.591747     -0.296177      0.064144
O       0.04680      1.91500     15.79701         1.097060      0.308361     -0.142095
O      15.32049     13.32215      2.70532         0.757012      0.801406      0.117888
O       0.05636     13.43974     15.87440        -1.060685     -0.108236     -0.334796
O       3.91912      1.91838      7.07091        -0.296968      0.226048      0.132146
O       3.86050     13.46263      7.10420         0.722787     -0.107876     -0.098160
O       0.07487      1.99387      7.08759         0.365423     -0.816877     -0.441359
O       0.01172     13.57648      7.04676         0.297541     -0.467650     -0.001110
O       3.87091      1.92879     11.47841         0.270124     -0.300344     -0.172972
O       3.77882     13.38525     11.58385         0.406786      0.309246     -0.548278
O       0.01876      1.96123     11.43715        -0.366430      0.036852      0.084654
O      15.31311     13.41399     11.39893         0.348571      0.858685      0.142488
O       3.81249      5.72912      2.73787        -0.069512      0.581466     -0.130153
O       3.83602      5.75410     15.65523        -0.001700      0.396582      0.506272
O      15.30924      5.67318      2.68993         0.215150      0.188957      0.024698
O       0.04252      5.74342     15.83318        -1.095621     -0.437009     -0.220835
O       3.90822      5.70904      7.07903        -0.374268      0.141692      0.462814
O      15.35519      5.72605      7.21364         0.375656     -0.196037     -0.404840
O       3.78695      5.89555     11.51080        -0.228744     -0.625554     -0.481365
O      15.28999      5.88990     11.35870         1.533464     -0.275017      0.103643
O       3.76440      9.54544      2.73544        -0.478333      0.241431     -0.112912
O       3.79210      9.49352     15.74887         0.283866      0.158595      0.364057
O      15.20964      9.69820      2.74747         1.665020     -0.148914     -0.340691
O      15.30663      9.58905     15.76300        -0.197152     -0.096924      0.475607
O       3.76049      9.73983      7.08105         0.199527     -0.564730     -0.004652
O      15.33588      9.57491      7.06776         0.259023      0.290637      0.039506
O       3.75465      9.70555     11.49785        -0.170643      0.085798     -0.085908
O      15.35762      9.49791     11.36843        -0.496163      0.639434      0.431934
O       7.75905      1.96795      2.61327        -1.434244     -0.242029      0.005420
O       7.75348      1.82269     15.72902         0.002685      0.392245      0.130289
O       7.61427     13.38651      2.64557         1.859505      0.145825      0.090665
O       7.76992     13.39038     15.92025        -0.511744      0.345791     -0.463847
O       7.74820      1.85030      7.00596        -0.184749      0.041732      0.460062
O       7.71089     13.42876      7.14599        -0.143466     -0.109197     -0.417525
O       7.69439      2.01810     11.47064        -1.121315     -0.424046      0.052807
O       7.62616     13.49446     11.43457         0.133110     -0.634688     -0.144146
O       7.65252      5.80885      2.72617         0.899601     -0.040256      0.179555
O       7.70531      5.80865     15.74797         0.135066     -0.586501     -0.019094
O       7.70456      5.84071      6.98384         0.586036     -0.094360      0.487462
O       7.65936      5.70123     11.55216        -0.947152      0.141484     -0.560198
O       7.69910      9.43490      2.72199        -0.180252      0.924517     -0.294050
O       7.63196      9.54100     15.72489         1.092642     -0.147676      0.261218
O       7.69417      9.64209      7.10498        -1.248128     -0.107977      0.072274
O       7.54058      9.68592     11.46968         1.653627     -0.291241      0.071123
O      11.46625      1.88636      2.68695         0.662717      0.115231      0.510290
O      11.57612      1.85922     15.91204         0.270137      0.676859     -1.167875
O      11.55333     13.58058      2.69045        -0.725798     -0.978438     -0.283829
O      11.62178     13.41877     15.74876        -0.246674     -0.396603     -0.105627
O      11.58952      1.94027      7.07156        -1.065482      0.255065     -0.208118
O      11.52866     13.40320      7.08737         0.106385     -0.197345     -0.185989
O      11.44130      1.77371     11.34145         1.620375      0.840789      0.447229
O      11.50597     13.46706     11.40589         0.530573     -0.030916      0.118804
O      11.63735      5.71761      2.65827        -1.690144      0.179468      0.368641
O      11.52708      5.78955     15.70457         0.144344     -0.458137     -0.188772
O      11.50711      5.70900      7.12173        -0.408624      0.157128     -0.279257
O      11.46021      5.76382     11.41703         1.191367      0.099095      0.069021
O      11.46451      9.59999      2.69759        -0.562254     -0.254185      0.014986
O      11.51924      9.58327     15.83858        -0.003840     -0.138809     -0.000063
O      11.48210      9.49291      7.10380         0.157092      0.600925      0.182543
O      11.47314      9.64650     11.40904         0.305806     -0.111224      0.123209
O       1.86268      3.92865      2.53443         0.269883     -1.036158      0.830909
O       2.07370      3.81932     15.75299        -1.194227     -0.523978     -0.619961
O       1.87957      0.08501      2.73740        -0.106006     -1.193637     -0.209640
O       1.92168     15.29081     15.94666         0.460979      1.498818     -0.683326
O      13.35961      3.79629      2.67516         0.314979      0.322521      0.133642
O      13.52912      3.84392     15.74261        -0.286525      0.325140     -0.176515
O      13.44931     15.33329      2.81090         0.124427      0.191527     -0.338659
O      13.54830      0.05926     15.75739         0.003456     -1.016262     -0.071366
O       1.96532      3.80798      7.16576         0.218683     -0.115013     -0.544774
O       1.99834     15.33712      7.03238        -0.002324      1.350874      0.376581
O      13.48146      3.84543      7.20225        -0.171858     -0.334246     -0.057064
O      13.43507      0.06444      7.04332         0.218169     -0.828999     -0.081423
O       1.96630      3.89913     11.39171        -0.369132      0.034567      0.365715
O       1.89189      0.04571     11.45554         0.039560     -0.618121     -0.297514
O      13.44443      3.92233     11.37639        -0.152651     -0.987192      0.182263
O      13.40636      0.05705     11.42534         0.522020     -0.306073     -0.003327
O       1.69295      7.68784      2.72758         0.561448      0.235971     -0.158062
O       1.75342      7.65027     15.70602         0.722948     -0.079118      0.425352
O      13.43296      7.66436      2.76616         0.023481     -0.030440     -0.233873
O      13.44854      7.64442     15.80709        -0.002540      0.375179     -0.117758
O       1.87931      7.65250      7.01544         0.389817      0.619933      0.180382
O      13.48037      7.61464      6.98582        -0.215188      0.821365      0.070026
O       1.98092      7.77135     11.45946        -0.463019     -0.947933     -0.183383
O      13.38526      7.73458     11.28824        -0.110401     -0.320231      0.595574
O       1.94698     11.53162      2.62767        -0.223760     -0.690759      0.561560
O       1.88162     11.51308     15.86188         0.145697     -0.389628      0.050186
O      13.40854     11.53478      2.62739        -0.639664      0.239617     -0.116861
O      13.50686     11.47672     15.85784        -0.227225      0.512046     -0.145819
O       1.88692     11.60030      6.96759        -0.127400     -0.494038      0.377952
O      13.49196     11.47535      7.10451        -0.283665      1.159174      0.145052
O       1.75301     11.60663     11.28401         0.401890     -1.109975      0.541041
O      13.41609     11.57686     11.30235         0.330712     -0.390075      0.308084
O       5.78962      3.83677      2.74332         0.120406      0.090849     -0.144225
O       5.74126      3.88551     15.80529         0.711411      0.255491     -0.017285
O       5.76977     15.35896      2.64534         0.195397      0.745548     -0.135104
O       5.73078      0.08559     15.86451         0.323985     -1.196498      0.082575
O       5.85788      3.84424      7.04250         0.142443     -0.962789      0.442392
O       5.77992      0.02539      7.05698         0.078672     -0.918830      0.145720
O       5.56278      3.82079     11.19945         0.545146     -0.068287      0.672058
O       5.70749     15.33270     11.54529         0.072391      0.078134     -0.524003
O       5.66627      7.75158      2.75684         0.448314     -1.459902      0.067122
O       5.75308      7.66158     15.91506        -0.041562     -0.116545     -0.352279
O       5.74678      7.70759      7.11840        -0.133817      0.126061      0.312838
O       5.67566      7.70122     11.39388         0.225107      0.194068      0.404486
O       5.77960     11.50003      2.75494        -0.309099     -0.245095     -0.160182
O       5.83737     11.39002     15.86136        -0.456341      1.290558      0.004064
O       5.77919     11.53881      6.97792         0.008043      0.060434      0.489462
O       5.76288     11.52900     11.53423        -0.355813      1.156099     -0.182018
O       9.60624      3.85637      2.74200        -0.002662     -0.063001     -0.144549
O       9.64769      3.77905     15.77967        -0.247858      0.412445     -0.730311
O       9.59385      0.01302      2.63533        -0.497011     -0.643404      0.017793
O       9.78179     15.28719     15.84297        -0.979687      0.076364     -0.654691
O       9.53903      3.81865      7.04666         0.269555      0.165402     -0.180533
O       9.65947     15.32594      7.05283        -0.018398     -0.081449     -0.099864
O       9.60382      3.84151     11.46446         0.267723     -0.571254      0.215357
O       9.58083     15.27196     11.45373        -0.451075      0.764339      0.026151
O       9.59555      7.59487      2.77270         0.328435      1.003050     -0.070263
O       9.63665      7.62519     15.67876        -0.052727     -0.018939      0.382186
O       9.57996      7.68076      7.15513        -0.019170     -0.248967     -0.555413
O       9.61651      7.69112     11.38468        -0.506493      0.787620      0.282802
O       9.60411     11.49150      2.59235        -0.235568     -0.015825      0.116821
O       9.62279     11.42097     15.87585         0.074556      0.998092     -0.271499
O       9.63225     11.51272      7.06073         0.015826      0.218057      0.388488
O       9.66976     11.51852     11.36724        -0.786785      0.249892      0.435996
