  # total energy = -7881.63016104 
CRSYTAL
PRIMVEC
    15.3600000000000000    0.0000000000000000    0.0000000000000000
     0.0000000000000000   15.3600000000000000    0.0000000000000000
     0.0000000000000000    0.0000000000000000    17.440000000000000
PRESSURE
1.10819 1.3842 -2.26871 0.23185 0.241561 -0.028546
PRIMCOORD
320 1
Pb       3.77565      3.86936      4.22509        -0.059802     -0.370358      0.563337
Pb       3.77526      3.88154     17.33709         0.178243     -0.249727     -0.187397
Pb       3.83466      0.01622      4.23045         0.436825     -0.062247     -0.203224
Pb       3.93520      0.08224      0.02430        -0.482376     -0.265966      0.472737
Pb      15.22396      3.88413      4.28480         0.580747      0.024411      0.701653
Pb      15.22404      3.79331     17.40281         0.468824     -0.034229     -0.071977
Pb      15.22406     15.28864      4.30061        -0.058419      0.224224      0.290486
Pb       0.01576     15.32890      0.02250         0.191382      0.065426     -0.438011
Pb       3.88997      3.85553      8.62874         0.178254     -0.405161      0.507331
Pb       3.78161     15.26153      8.78749         0.435707      0.463768     -0.103615
Pb       0.11768      3.67000      8.66510        -0.061668      0.109611     -0.103464
Pb       0.13634     15.32757      8.59676        -0.293207      0.453107      0.772485
Pb       3.77830      3.92593     13.08601         0.027727     -0.304589     -0.639140
Pb       3.93344     15.27294     13.24981        -0.414724      0.345403     -1.087258
Pb      15.24384      3.84341     12.99960         0.267768      0.079041      0.029789
Pb      15.35882      0.05095     12.99773        -0.223706     -0.372089      0.102767
Pb       3.81800      7.63314      4.26664        -0.363985      0.301935      0.784527
Pb       3.81222      7.76784      0.00847        -0.076880     -0.380129     -0.255050
Pb      15.23625      7.48866      4.32950         0.334239      0.387490     -0.083436
Pb       0.09950      7.70844     17.38390        -0.768308      0.008565      0.166620
Pb       3.86944      7.53614      8.72602         0.048084      0.447079      0.063754
Pb      15.34466      7.65490      8.71695         0.129807      0.171243     -0.187412
Pb       3.78876      7.80031     13.08132         0.258064     -0.330174     -0.461620
Pb       0.03052      7.72036     12.90877        -0.677844     -0.397815      0.805786
Pb       3.79599     11.43055      4.30526         0.218388      0.190816      0.061987
Pb       3.79008     11.40476     17.42659        -0.154450      0.797158      0.406304
Pb       0.00137     11.45546      4.27186        -0.534974      0.121264     -0.003073
Pb       0.06259     11.40737      0.03206        -0.571023      0.411438      0.041644
Pb       3.70480     11.51122      8.68841         0.448921      0.275635     -0.253331
Pb       0.06029     11.51605      8.61311        -0.015799      0.001073      0.299993
Pb       3.75563     11.56488     13.02648         0.279320     -0.053797      0.070711
Pb      15.17804     11.42105     13.09503        -0.027293      0.583530      0.026505
Pb       7.60886      3.90384      4.34916         0.115781     -0.045808     -0.533590
Pb       7.69459      3.86175     17.27790        -0.375716     -0.051117      0.705987
Pb       7.61042      0.05006      4.18095         0.119914     -0.221154      0.523246
Pb       7.78331     15.30059     17.43490        -0.332633      0.347719      0.376040
Pb       7.69896      3.69805      8.73643        -0.133507      0.343058     -0.057969
Pb       7.65363     15.31703      8.64873         0.063926      0.085277      0.302720
Pb       7.51417      3.68963     13.09159         0.614992      0.972274      0.567284
Pb       7.66857     15.12155     13.16734        -0.104916      0.289783     -0.477494
Pb       7.57050      7.72852      4.33143         0.297605      0.303261     -0.064527
Pb       7.79925      7.52718     17.39200        -0.062472      0.186315      0.062240
Pb       7.55851      7.67165      8.67901         0.322695     -0.466354      0.486145
Pb       7.63284      7.61055     12.99355         0.631949     -0.146856      0.884218
Pb       7.67188     11.52908      4.27493         0.130930     -0.693288      0.474702
Pb       7.72036     11.46775     17.42325         0.187308     -0.117427     -0.179772
Pb       7.70950     11.38057      8.75047        -0.606900      0.849860      0.342557
Pb       7.58416     11.45285     13.10698         0.220845      0.490050     -0.332223
Pb      11.51779      3.87728      4.39699         0.163394     -0.401596      0.162295
Pb      11.32227      3.80329     17.28514         0.844261      0.013371      0.404788
Pb      11.40987      0.13541      4.25800         0.545795     -0.256803      1.101233
Pb      11.70042      0.02085     17.30876        -0.276617     -0.171469      0.054855
Pb      11.62669      3.75632      8.73871        -0.123292     -0.136471     -0.510296
Pb      11.48981     15.22527      8.62673        -0.008868      0.596151     -0.240281
Pb      11.42574      3.89850     12.96719         0.615044     -0.224786      1.013130
Pb      11.45272     15.28880     13.03282         0.645606      0.508111      0.319215
Pb      11.49548      7.72335      4.34635        -0.295281      0.526441      0.446423
Pb      11.47996      7.61378     17.37200         0.227508      0.337551     -0.125618
Pb      11.42649      7.57803      8.69354         0.300420      0.174257      0.127610
Pb      11.61341      7.74868     12.86351        -0.300901     -0.605522      1.274029
Pb      11.41233     11.54505      4.42211         0.309279     -0.641240      0.089988
Pb      11.64872     11.56339      0.00084        -0.578738     -0.373996      0.106115
Pb      11.38205     11.52226      8.75846         0.274484      0.088532     -0.174862
Pb      11.38107     11.50238     13.00118         0.127259      0.192594      0.574494
Ti       1.83940      1.91001      2.39304         0.532998      0.047580     -1.690170
Ti       1.94407      1.82206     15.38063        -0.205214      0.845678     -0.417203
Ti       1.94579     13.43316      2.30013        -0.145291     -0.609263     -0.351668
Ti       1.92488     13.41273     15.51773        -1.025331     -0.352049      0.181688
Ti      13.39609      1.94059      2.32746         0.962306      0.440658     -0.175399
Ti      13.49882      1.97003     15.37183        -0.058938     -0.429829     -0.351853
Ti      13.35150     13.45471      2.30472         1.387390     -0.663000      0.036804
Ti      13.47745     13.43425     15.37048         0.390004     -0.102889     -0.321498
Ti       2.09603      1.93488      6.63094        -0.450889      0.893843      0.420832
Ti       1.93179     13.52662      6.55163         1.101592     -0.593967      0.767009
Ti      13.50474      1.83846      6.76392        -0.400101      0.941854     -2.246256
Ti      13.47067     13.37091      6.73913        -0.914470      0.645561     -1.343254
Ti       2.01423      1.89504     11.12470         0.036244     -0.248363     -0.516468
Ti       1.82323     13.41490     11.02919         0.280775      0.892031     -0.026771
Ti      13.44981      1.93757     11.02068         0.750377     -0.522336     -0.573470
Ti      13.38004     13.46356     10.92445         1.744428      0.410404      0.828326
Ti       1.95537      5.75191      2.18587        -1.937467     -0.049486      1.716002
Ti       1.85613      5.72824     15.31780         0.027618     -0.072847     -0.056950
Ti      13.34686      5.73330      2.27220         0.848823      0.406535     -0.628055
Ti      13.49232      5.76183     15.40658        -1.116586      0.697734     -0.831022
Ti       1.92475      5.84434      6.78924         0.089772     -1.268361     -1.330446
Ti      13.42956      5.76861      6.78630         0.391707     -0.514453     -0.262479
Ti       1.91149      5.78840     11.02227         0.262916     -0.348642     -0.590522
Ti      13.38989      5.79731     10.91066         1.111782     -0.714275     -0.873752
Ti       1.79886      9.54737      2.34472        -0.221657     -0.324565      0.127366
Ti       1.86683      9.59336     15.36239        -0.621172      0.579560      0.177819
Ti      13.33674      9.62068      2.32328        -0.004098      0.279291     -1.527891
Ti      13.36783      9.62677     15.46935         0.229625     -0.347602     -0.307973
Ti       1.86341      9.60477      6.61816        -0.121937     -0.107626     -0.439568
Ti      13.37785      9.62383      6.77252        -0.008186     -0.027817     -0.874497
Ti       1.84037      9.66560     10.95939         0.410282     -1.083948     -0.834918
Ti      13.38991      9.68756     10.91531         0.385446     -0.699032     -0.616374
Ti       5.78958      1.93803      2.24404        -0.197328      0.312404     -1.018640
Ti       5.79808      1.86773     15.47302         0.402681      0.541869      1.278965
Ti       5.84722     13.33905      2.32514        -0.666318      0.513855     -0.175941
Ti       5.72925     13.41204     15.54046         0.063714     -0.257053     -0.327753
Ti       5.85843      1.83713      6.64825        -0.919902      0.462566      0.810046
Ti       5.77448     13.40443      6.68663         0.020026     -0.060788     -0.124719
Ti       5.81877      1.93178     11.02451        -1.747869     -0.357565     -0.631134
Ti       5.66613     13.50006     11.01836         0.691460     -0.483299      0.415453
Ti       5.70135      5.75736      2.34106         1.480176     -0.303824     -1.369640
Ti       5.69178      5.80984     15.40908         0.699799     -0.494663     -1.053406
Ti       5.82486      5.68701      6.65792        -0.386400      0.324464      0.299156
Ti       5.77128      5.81223     11.05535         0.103781     -0.661896     -0.841036
Ti       5.62406      9.57767      2.28092         1.304085     -0.438745      0.034083
Ti       5.71059      9.58558     15.45384         0.506422      0.213710     -0.885326
Ti       5.65191      9.59146      6.76576         0.701082     -0.352944     -1.865074
Ti       5.75018      9.60715     11.09994        -0.402384      1.132637     -0.109997
Ti       9.64796      1.89062      2.25647        -0.370153      1.177416     -0.691182
Ti       9.60381      1.84929     15.38786        -0.015889      1.041298     -1.392517
Ti       9.67897     13.38836      2.32905        -0.351705     -0.523773     -1.413762
Ti       9.63048     13.43928     15.49747         0.482808     -0.710589     -1.235020
Ti       9.63645      1.95363      6.61289         0.179976     -0.533620     -0.430130
Ti       9.53997     13.45233      6.70153         0.413339     -0.046693      0.029414
Ti       9.58960      1.95139     11.09310        -0.202791     -0.133169      0.106098
Ti       9.65533     13.53333     11.04085        -1.964428     -1.254104     -0.684305
Ti       9.59931      5.72242      2.41762        -0.903933      0.000828     -0.645359
Ti       9.64798      5.66361     15.34942        -0.187911      0.528778     -2.547088
Ti       9.58261      5.73115      6.64792         0.019152      0.288002     -0.482594
Ti       9.57045      5.68203     10.99069        -0.666413      1.175151      2.653386
Ti       9.55325      9.50562      2.28380        -0.085078      0.755016     -1.115341
Ti       9.55851      9.55518     15.42370         0.764918      0.078821     -0.709293
Ti       9.59723      9.57980      6.90914        -0.670801     -0.029508     -3.084211
Ti       9.56444      9.57902     11.11332        -0.341188     -0.078770      0.009571
O       1.76475      1.88301      0.57764         0.379601      0.282074      1.150597
O       2.09133      1.84144     13.59291        -0.275937     -0.155787      0.626465
O       1.79820     13.30737      0.51414         0.353259      0.461684      1.322215
O       2.00675     13.28255     13.78277        -0.054667      0.433559     -0.761871
O      13.60478      2.03941      0.53342        -0.689764     -0.404845      0.330120
O      13.54483      1.95422     13.64448         0.013674     -0.316517     -0.760725
O      13.33964     13.49663      0.51509         0.059372      0.141609      1.155982
O      13.52357     13.34104     13.58300        -0.495574     -0.054211      0.735432
O       2.10282      1.96571      4.87181         0.085591     -0.261287     -0.452512
O       1.90511     13.50588      4.79286         0.150282      0.012993      0.128464
O      13.32769      2.01251      4.89291         0.468218     -0.536948      1.600609
O      13.38698     13.31142      4.89322         0.438143      0.430545      1.800296
O       2.01004      1.89824      9.31375        -0.289148      0.221878      0.879786
O       1.95458     13.40283      9.23926        -0.168725      0.110376      0.766324
O      13.49043      1.82444      9.20979        -0.093905      0.308260      0.618166
O      13.46150     13.56949      9.15357        -0.174448     -0.198878      0.561215
O       1.89026      5.80666      0.47199         0.182140     -0.298279     -0.782391
O       1.83452      5.73324     13.52077         0.371532      0.472262      1.205947
O      13.44678      5.70991      0.48945        -0.393759     -0.052431      0.921414
O      13.43019      5.82788     13.63873         0.112531     -0.035556      0.409042
O       1.86408      5.71926      4.98492         0.075929      0.302908      0.776231
O      13.65642      5.68936      4.93808        -0.905223      0.067148      1.474398
O       2.03060      5.97530      9.18693        -0.538009     -0.782039      1.192389
O      13.29958      5.83232      9.03235         0.507154     -0.225558      1.948272
O       1.70721      9.60878      0.55517         0.908882     -0.144020      0.460536
O       1.79498      9.66994     13.58065         0.267570     -0.316207      0.096864
O      13.28722      9.64642      0.46217         0.254855     -0.266591      1.980588
O      13.42987      9.67988     13.64564        -0.005403      0.114609      0.442154
O       1.76840      9.54408      4.81245         0.336495      0.231596      1.174879
O      13.28770      9.67423      4.97225         0.377764      0.167278      0.873696
O       1.79764      9.59766      9.11393         0.275418      0.083552      2.100641
O      13.35293      9.48583      9.14544         0.240047      0.269800      0.701272
O       5.91479      2.00019      0.43809        -0.925242     -0.041663      1.153971
O       5.79151      1.79508     13.73908        -0.217348      0.036710     -0.459829
O       5.94459     13.26567      0.56654        -0.251996      0.151235      0.113517
O       5.70258     13.54470     13.74046        -0.058817     -0.117840      0.791623
O       5.73818      1.94943      4.89117         0.299895     -0.293320     -0.049406
O       5.85880     13.50754      4.91636        -0.212222     -0.246811      0.143036
O       5.85885      1.81255      9.24847         0.212245      0.326265      0.592761
O       5.57869     13.41506      9.26606         0.338493      0.031661     -0.007285
O       5.83550      5.72954      0.54336        -0.497608      0.008563      0.514403
O       5.76612      5.76428     13.57455        -0.463115      0.316120      1.861344
O       5.80711      5.70337      4.85749        -0.091754      0.209577      0.509785
O       5.92392      5.89365      9.23067        -0.774540     -0.259126      1.262960
O       5.60607      9.62355      0.49032         0.126056      0.050773      0.519312
O       5.76951      9.54848     13.65126        -0.227770      0.261923      0.958816
O       5.73584      9.50711      4.89667        -0.090412      0.119682      1.740353
O       5.73334      9.69593      9.33512        -0.047153     -0.458950      0.017881
O       9.87668      1.87835      0.44404        -0.855659      0.146236      1.558666
O       9.48142      1.97127     13.58373         0.362251     -0.486307      0.548078
O       9.76920     13.41263      0.49626        -0.678234      0.189558      1.505669
O       9.66459     13.46930     13.62592         0.004810      0.304809      1.169062
O       9.71658      2.00694      4.80922        -0.439036     -0.219984      0.692328
O       9.63883     13.47025      4.95704        -0.129164     -0.525105     -1.003131
O       9.43049      1.81393      9.34976         0.416764      0.332435      0.292113
O       9.61660     13.45683      9.22594         0.235639      0.400518      1.371715
O       9.61270      5.81547      0.61429         0.018674     -0.172540      0.057465
O       9.70429      5.47391     13.53580        -0.352483      1.093844      1.301929
O       9.70434      5.82973      4.83153        -0.757479     -0.444476      1.453173
O       9.47122      5.73072      9.31628         0.395467     -0.051073     -2.021826
O       9.59025      9.37186      0.44471        -0.115709      0.546806      1.328200
O       9.55319      9.70043     13.60851         0.258412     -0.207393      0.445234
O       9.63574      9.54840      5.04104        -0.463667      0.232856      1.498659
O       9.65925      9.63824      9.34691        -0.376519     -0.073023      0.037407
O       3.89691      2.02236      2.68394        -0.521808     -0.720369     -0.154331
O       3.87408      1.81779     15.95669         0.148540      0.714855     -0.505922
O       3.96944     13.37537      2.70573        -1.317886      0.219047     -0.124487
O       3.76411     13.49197     15.98619         1.690823     -0.308407     -0.180885
O      15.32053      1.85577      2.82383         0.385912      0.025299     -0.216587
O       0.08420      1.98935     15.77739        -0.170155     -0.543118      0.038845
O      15.33572     13.55709      2.75153         0.072919     -0.655297     -0.465311
O      15.33307     13.49609     15.84535         0.431509     -0.299859     -0.049435
O       3.94131      1.96304      7.22162         0.153326     -0.126344     -0.816488
O       3.80971     13.39987      7.10166         0.059691      0.199361     -0.465387
O       0.09350      1.82863      6.96655        -0.236778      0.574191      0.352020
O       0.13867     13.46279      7.12906        -1.404102      0.124308     -0.671751
O       3.88376      1.86668     11.45119        -0.258909      0.016285      0.306152
O       3.78400     13.52771     11.48747        -0.157931     -0.384798      0.238003
O       0.02023      1.92115     11.47529        -0.028317      0.060288     -0.064811
O      15.31973     13.49005     11.49222         0.214079     -0.865854     -0.612248
O       3.76146      5.92014      2.63920         0.785382     -0.995347     -0.114120
O       3.80455      5.91474     15.88504         0.184255     -1.066958     -0.648116
O      15.29161      5.73682      2.71601        -0.021158      0.016844     -0.346598
O      15.33046      5.76369     15.83023         1.276756      0.418964     -0.323706
O       3.88654      5.77215      7.15666         0.293066     -0.302230     -0.467471
O       0.03588      5.68679      7.21853        -0.907132      0.425104     -0.194965
O       3.86484      5.91921     11.39434        -0.720761      0.162023      0.232162
O      15.34468      5.71494     11.35659        -0.018519      0.235399     -0.426012
O       3.76799      9.54444      2.81869        -0.007892     -0.274538     -0.564721
O       3.74186      9.71846     15.90698         0.531315     -0.820929     -0.814873
O      15.29662      9.70359      2.67062        -0.494082     -0.436832      0.105554
O      15.32427      9.59745     15.93001         0.083747      0.069477     -0.779880
O       3.76455      9.54241      7.01646         0.280463      0.352438      0.052726
O      15.29356      9.63192      7.11617         0.308765     -0.245812     -0.344988
O       3.85762      9.52082     11.46806        -1.267590      0.155423     -0.217954
O      15.25234      9.64984     11.36254         1.481906     -0.320058     -0.094382
O       7.63378      1.88100      2.54795         1.624073      0.380243      0.556065
O       7.70296      1.95170     15.89038         0.083291     -0.431434     -0.408439
O       7.78705     13.41659      2.76651        -0.790371     -0.028775     -0.197763
O       7.70490     13.43309     15.82861        -0.168952     -0.263907      0.051144
O       7.73667      1.86025      7.13944        -0.072310     -0.046183     -0.518698
O       7.70047     13.35621      7.08575        -1.131895      0.180554      0.191636
O       7.58527      2.00981     11.55431         1.588980     -0.194396     -0.524019
O       7.62680     13.45016     11.49475         0.413247      0.305047     -0.145143
O       7.71348      5.76924      2.73016        -0.811715      0.139541      0.401198
O       7.74139      5.72059     15.78747        -1.104459      0.579658     -0.123283
O       7.68622      5.78328      7.07301         0.519747      0.002436     -0.483674
O       7.62829      5.71171     11.48981         0.395973      0.069092     -0.068058
O       7.55088      9.67987      2.64803         0.750312     -0.810788      0.025633
O       7.68278      9.57522     15.84887        -0.523411      0.198157     -0.129673
O       7.61437      9.56658      7.29248         0.106427      0.081385     -0.671435
O       7.71171      9.63662     11.48802        -0.357059      0.211465     -0.100594
O      11.58487      2.05453      2.82317        -1.673127     -0.595479     -0.901457
O      11.58418      1.99749     15.63604        -0.677284     -0.518521      0.511646
O      11.55060     13.31156      2.78321        -1.236923      0.873712     -0.249962
O      11.54008     13.48802     15.86668        -0.162011      0.403586     -0.561475
O      11.48367      1.89152      7.05497        -0.007881     -0.150140      0.443882
O      11.48520     13.36902      7.15224         0.720856      0.243729     -0.215269
O      11.61367      2.02753     11.41361        -1.660572     -0.777131     -0.241498
O      11.55349     13.46418     11.46560        -0.807082      0.028385     -0.425669
O      11.43490      5.77753      2.82126         1.748857     -0.120376     -0.483361
O      11.49115      5.64764     15.82765         0.609564      0.313262     -0.129002
O      11.50275      5.65637      7.16070        -0.219371      0.108997     -0.597490
O      11.60952      5.71335     11.39454        -1.221479      0.348085     -0.405842
O      11.45775      9.61682      2.82322        -0.211035      0.064707     -0.504029
O      11.48188      9.57924     15.81677        -0.243924      0.209493     -0.237919
O      11.45265      9.66591      7.17971         0.575576     -0.025264      0.233235
O      11.56161      9.61893     11.37091        -1.189815     -0.038248      0.348798
O       1.95875      3.81060      2.67382        -0.276603      0.708114     -0.247598
O       1.96225      3.84640     15.60533         0.617742      0.460554      0.564880
O       1.99524     15.30702      2.61054         0.142893      0.317260      0.338011
O       1.98566      0.01601     15.90172        -0.467929     -0.432616     -0.129917
O      13.44916      3.84114      2.74451        -0.267736      0.636762     -0.310556
O      13.54752      3.84802     15.60611        -0.115465      0.426513      0.884445
O      13.34199      0.07317      2.74612        -0.046500     -1.055296     -0.316091
O      13.51372     15.32783     15.72289        -0.355062      0.938110      0.328954
O       2.00341      3.84473      7.19214        -0.235056     -0.325338     -0.183991
O       2.05251      0.11417      7.12517        -0.176166     -1.755592     -0.632425
O      13.40595      3.70742      7.18015         0.400296      1.225174      0.038643
O      13.49330     15.34377      7.08560        -0.300808     -0.915907     -0.197078
O       1.97651      3.85956     11.56968         0.074943      0.109627     -0.809211
O       1.85518     15.28913     11.42455         0.231351      0.517891      0.040633
O      13.48261      3.84941     11.41886         0.019795      0.317283     -0.682739
O      13.44885     15.31340     11.49798        -0.302144      0.666943     -0.270432
O       1.76392      7.63097      2.67437         0.344798      0.212217     -0.078348
O       1.95820      7.75409     15.83681        -0.443918     -0.889897     -0.426308
O      13.32907      7.73920      2.76003         0.482525     -1.009108     -0.323134
O      13.40516      7.75980     15.80557         0.036990     -1.188679     -0.014996
O       1.93198      7.69772      7.03887        -0.459108      0.425433      0.083889
O      13.30364      7.69778      7.00802         0.412001     -0.753993     -0.031622
O       1.81363      7.64951     11.45456         0.347326      1.251389     -0.365017
O      13.46997      7.63081     11.46493        -0.061410      0.662042     -0.834806
O       1.95786     11.42239      2.77191        -0.179920      1.495673     -0.191370
O       1.80609     11.47074     15.87570         0.416839      0.378681     -0.070420
O      13.38477     11.51902      2.68634         0.258505      0.496981     -0.055268
O      13.37969     11.56723     15.94320         0.470543     -0.276393     -0.836681
O       1.89219     11.55062      7.07738         0.045436     -0.310465     -0.689790
O      13.40934     11.56748      7.24539         0.332218     -0.303186     -0.455494
O       1.98086     11.46445     11.35919        -0.244042      0.331637     -0.053273
O      13.45628     11.52413     11.33044        -0.336639      0.449406     -0.260646
O       5.76791      3.89768      2.76996        -0.061087     -0.425464     -0.201398
O       5.82072      3.84945     15.73394        -0.853864      0.458804      0.087688
O       5.79401      0.00479      2.63926        -0.191105     -0.350738     -0.018164
O       5.87825     15.30774     16.00747        -0.646990      0.129295     -0.449638
O       5.93576      3.77075      7.09825        -0.599202      0.716435     -0.220460
O       5.79473     15.32918      7.12830        -0.143737     -0.345991     -0.412007
O       5.57783      3.92543     11.29646         0.532800     -0.696286      0.499707
O       5.78775      0.02200     11.43142        -0.122384     -0.206243      0.304663
O       5.71428      7.61758      2.71397         0.154228      0.988801      0.068345
O       5.63776      7.74459     15.84675         0.448431     -0.911695     -0.142994
O       5.75681      7.60834      7.15302        -0.000620      0.695623     -0.500345
O       5.83805      7.78971     11.62851        -0.444155     -1.052438     -0.934540
O       5.68171     11.42870      2.76553         0.255957      0.816747     -0.056076
O       5.68434     11.50200     15.79582         0.377409      0.307990      0.202333
O       5.73732     11.48517      7.09911        -0.170565     -0.087535     -0.136628
O       5.65848     11.58872     11.57892         0.383048     -0.656513     -0.273457
O       9.55837      3.81606      2.70277         0.161833     -0.489694     -0.154984
O       9.56039      3.77455     15.62937         0.255382      0.143178      1.267941
O       9.55875      0.00884      2.67687         0.785371     -0.029347     -0.145135
O       9.51486      0.05293     15.86238         0.758956     -1.093411     -0.380007
O       9.54472      3.82746      7.10266         0.107191      0.133665     -0.236493
O       9.56541     15.33514      6.93722         0.195754      0.534903      0.546342
O       9.60153      3.88198     11.42279        -0.068092     -1.601912     -0.315713
O       9.58360      0.05624     11.49515         0.246794     -0.299110     -0.027825
O       9.55678      7.73919      2.76974        -0.038858     -0.707297      0.072949
O       9.65050      7.59846     15.69530        -0.246634      0.493483      0.069232
O       9.60127      7.65254      7.16874         0.092762     -0.548988     -0.076232
O       9.51982      7.60564     11.46608         0.704810      1.107667     -0.266517
O       9.52076     11.44502      2.71021         0.387922      0.897880     -0.103830
O       9.67106     11.56191     15.75019        -0.444757     -0.485395      0.287703
O       9.51695     11.49924      7.25751         0.440989     -0.163383     -0.330763
O       9.48341     11.64716     11.46987         1.008653     -1.034248     -0.117669
