  # total energy = -7879.03390586 
CRSYTAL
PRIMVEC
    15.6000000000000000    0.0000000000000000    0.0000000000000000
     0.0000000000000000   15.6000000000000000    0.0000000000000000
     0.0000000000000000    0.0000000000000000    17.640000000000000
PRESSURE
-6.05259 -6.06076 -9.73209 -0.008702 0.321092 -0.035729
PRIMCOORD
320 1
Pb       3.84294      3.82341      4.41651         0.161382      0.024409     -0.255638
Pb       3.98665      3.99430     17.59988        -0.044411     -0.087064     -0.284702
Pb       3.75647     15.45634      4.34957         0.874878     -0.264668      0.394013
Pb       3.78073     15.57019      0.04974         0.535468      0.084904     -0.529143
Pb      15.55091      3.84856      4.37344         0.299447      0.234277     -0.392890
Pb       0.03607      3.99118     17.62552        -0.253666     -0.167218     -0.589642
Pb      15.57422     15.53738      4.35467        -0.210625      0.013922     -0.190081
Pb      15.40694     15.58777     17.62131         0.026365     -0.026936     -0.170434
Pb       3.82834      4.01688      8.82256        -0.156609     -0.282720     -0.488418
Pb       3.88563     15.58584      8.75464         0.009684      0.105612      0.242806
Pb      15.55209      3.99092      8.84770        -0.039544     -0.297423     -0.274934
Pb      15.53195     15.59273      8.64724        -0.192785     -0.075202      0.888814
Pb       3.95497      3.71497     13.27919        -0.070033      0.101651      0.056692
Pb       3.86818     15.56143     13.15777         0.217444     -0.224652     -0.456870
Pb       0.02067      3.91222     13.17213        -0.148914     -0.178997      0.057115
Pb      15.51076     15.58678     13.20430         0.223152      0.171961     -0.368231
Pb       3.94756      7.76129      4.45299        -0.142661      0.329671     -0.704829
Pb       4.00307      7.74422     17.60474        -0.121479     -0.010492     -0.312427
Pb       0.05093      7.80798      4.33039         0.123976     -0.391502     -0.089939
Pb       0.08617      7.75648     17.50026         0.032214      0.093907     -0.053568
Pb       3.88748      7.82740      8.80544        -0.033961     -0.071392      0.064856
Pb      15.49031      7.78466      8.85638         0.377924      0.551005     -0.157753
Pb       3.92038      7.73501     13.18610        -0.040140      0.025366     -0.150121
Pb       0.10161      7.78317     13.17788        -0.022158     -0.326358     -0.187894
Pb       3.90952     11.65135      4.35299        -0.131043     -0.147618     -0.139621
Pb       3.85427     11.72145     17.59866         0.193682     -0.578875     -0.136513
Pb      15.58298     11.70294      4.30029         0.234576      0.046542     -0.098927
Pb      15.59323     11.71063     17.45229        -0.152154     -0.042807      0.371505
Pb       3.82268     11.74640      8.86794         0.060237      0.004433      0.061094
Pb      15.53021     11.81647      8.76943         0.119073     -0.439090      0.223186
Pb       3.85022     11.80136     13.16638        -0.223294     -0.040896     -0.179149
Pb      15.44724     11.77769     13.18302         0.221615      0.091052     -0.283176
Pb       7.76421      3.66345      4.46526         0.239885     -0.298528     -0.178617
Pb       7.76251      3.92907      0.00557        -0.044264     -0.560324     -0.240186
Pb       7.61793     15.48043      4.43372        -0.054709     -0.175312     -0.438083
Pb       7.68383      0.02592     17.57216         0.355455      0.216998      0.072130
Pb       7.57613      3.94979      8.83316         0.442575     -0.225824     -0.236894
Pb       7.75509      0.02089      8.81811         0.041857      0.171506     -0.276578
Pb       7.91804      3.94341     13.25757        -0.203313      0.138348     -0.346724
Pb       7.81726      0.11193     13.15301        -0.198970     -0.420612     -0.118416
Pb       7.88154      7.67429      4.40198         0.137270      0.474261     -0.115079
Pb       7.77759      7.81518      0.00980         0.167817     -0.162575     -0.297254
Pb       7.70457      7.83138      8.79558         0.059396      0.088690     -0.382923
Pb       7.76784      7.85164     13.17041        -0.101658     -0.280605     -0.059527
Pb       7.79488     11.60439      4.39219         0.044226      0.011567     -0.404316
Pb       7.76955     11.66874     17.53914         0.357034      0.016777     -0.171565
Pb       7.80883     11.76128      8.76034        -0.086794     -0.292061      0.270958
Pb       7.74357     11.81895     13.13676         0.437139     -0.078914     -0.235146
Pb      11.75938      3.81597      4.36363        -0.451865     -0.074655     -0.343924
Pb      11.69872      3.81428      0.03628         0.348023     -0.161823     -0.081726
Pb      11.59895     15.43794      4.40960        -0.070990      0.075343     -0.627455
Pb      11.54921     15.49503      0.02470         0.086812      0.199008     -0.196399
Pb      11.61251      3.92672      8.77124         0.110794      0.034035     -0.088657
Pb      11.78084      0.01667      8.74883        -0.320019      0.126446     -0.161849
Pb      11.78693      3.92410     13.15579         0.060413      0.019060     -0.100025
Pb      11.66042     15.59510     13.13671        -0.094539     -0.037653      0.229770
Pb      11.69525      7.72002      4.33093        -0.156715     -0.257297     -0.032321
Pb      11.63702      7.70830     17.55731         0.139399      0.045814      0.158314
Pb      11.61704      7.80290      8.75310        -0.059627      0.049296     -0.152760
Pb      11.68886      7.74003     13.15064         0.130664      0.167131      0.165999
Pb      11.69449     11.50618      4.26881        -0.503025      0.486347      0.270209
Pb      11.68841     11.61932     17.50927         0.125675      0.645760      0.123560
Pb      11.70862     11.72546      8.80234        -0.241052     -0.117914     -0.182717
Pb      11.61232     11.68956     13.17314        -0.154937     -0.183713     -0.316396
Ti       2.01970      1.84988      2.39833        -0.528149      1.231300     -0.026072
Ti       1.94470      1.88501     15.62447         0.063101      0.936656     -1.416444
Ti       1.89039     13.63913      2.24254         0.720495     -1.184601     -0.281310
Ti       2.07896     13.61307     15.58506        -0.701596     -0.470239     -1.293873
Ti      13.69920      1.87308      2.36979        -0.890949      0.190735     -1.243333
Ti      13.62959      1.95416     15.72120         0.498169      0.434838     -1.758360
Ti      13.58562     13.58353      2.33676        -0.674624     -0.127528     -1.001538
Ti      13.70614     13.67380     15.51984        -0.517640     -0.110140     -0.866184
Ti       1.82415      1.88439      6.77872         0.531847      1.071031     -1.039963
Ti       1.90399     13.69584      6.84660         0.488108     -0.582931     -1.112969
Ti      13.60125      1.95246      6.69750        -0.357257     -0.137553     -0.949059
Ti      13.58239     13.63741      6.68253        -0.262766      0.188740     -0.729614
Ti       1.97253      1.93616     11.16685        -0.252112     -0.867006     -0.888528
Ti       1.91607     13.63480     11.09901         0.214256      0.269343     -0.678127
Ti      13.62949      1.94657     11.20787         0.563274      0.238155     -1.476246
Ti      13.57346     13.71229     11.10898         0.271397     -0.718032     -0.243663
Ti       2.06328      5.77887      2.28996        -0.302933      0.403106     -1.147231
Ti       2.00381      5.78721     15.51894         0.231452     -0.092924     -0.797881
Ti      13.69861      5.78039      2.26736        -0.324795     -0.121993     -1.148919
Ti      13.65131      5.89377     15.57763         0.345224     -1.098621     -0.189152
Ti       1.86596      5.88548      6.77698         0.386704     -0.308814     -0.849223
Ti      13.66438      5.82578      6.76576        -0.507037      0.169223     -1.063013
Ti       2.06874      5.75465     11.16984        -0.737112      0.694572     -0.960500
Ti      13.69069      5.90200     11.16556        -0.089121     -0.596646     -0.202395
Ti       1.94034      9.70275      2.34924         0.560572      0.631264      0.060104
Ti       1.96722      9.69927     15.49110         0.444641      0.527396     -0.576084
Ti      13.66643      9.67311      2.49029        -0.014446      0.549507     -2.077709
Ti      13.66878      9.73227     15.64856        -0.410674      0.255019     -1.329570
Ti       2.00310      9.78335      6.88122        -0.095455      0.195628     -1.624937
Ti      13.62847      9.72320      6.77492         0.013097     -0.065352     -1.239182
Ti       1.98097      9.70245     11.22798        -0.359140      0.311566     -0.712027
Ti      13.66989      9.72744     11.24314        -0.094960      0.044989     -0.926494
Ti       5.79294      1.85382      2.39594         0.965937     -0.286404     -1.840398
Ti       5.79833      1.88139     15.63748         0.508381      0.454069     -1.110602
Ti       5.80375     13.50882      2.28202         0.208139      0.543958     -0.820820
Ti       5.92941     13.59392     15.63520        -0.594260      0.340107     -1.009327
Ti       5.74745      1.90983      6.83220         0.631626      0.002447     -1.654058
Ti       5.80207     13.63214      6.83511         0.057670     -0.076434     -2.113812
Ti       5.87510      1.99048     11.19664         0.040302     -0.660663     -1.343654
Ti       5.83283     13.61234     11.13939        -0.612662      1.233449     -0.461396
Ti       5.94830      5.76329      2.34552        -1.398328     -0.030718     -1.062605
Ti       5.95130      5.79690     15.57459        -0.716219     -0.202089     -1.366770
Ti       5.79130      5.82476      6.66676         0.835264      0.048477     -0.636372
Ti       5.88812      5.88553     11.14961         0.260891     -0.477950     -0.645146
Ti       5.80832      9.62330      2.37952        -0.233210      0.587286     -1.143097
Ti       5.85443      9.67617     15.56310        -0.277330      0.624186     -0.573961
Ti       5.81381      9.78156      6.86013         0.298508      0.022225     -1.275629
Ti       5.84951      9.75352     11.23032        -0.104472     -0.179717     -1.805725
Ti       9.67549      1.87522      2.43685         0.854745      0.304284     -1.422254
Ti       9.76734      1.93714     15.66576        -0.010896     -0.773508     -0.777614
Ti       9.66334     13.61177      2.30451         0.282345     -0.277939     -0.565411
Ti       9.78650     13.68547     15.54720         0.292247     -0.203331     -0.594910
Ti       9.71575      1.95800      6.80355        -0.432264      0.510272     -1.657403
Ti       9.71330     13.68687      6.77228         0.331036     -0.247598     -1.183253
Ti       9.76553      1.94093     11.10686         0.004647      0.012503     -1.220054
Ti       9.72081     13.65101     11.06480        -0.264034     -0.696727     -0.043719
Ti       9.75241      5.79684      2.32212         0.656411     -0.150208     -1.012545
Ti       9.82105      5.73294     15.62496        -0.119563     -0.021434     -1.607782
Ti       9.67560      5.82821      6.80370         0.045571      0.071370     -0.042999
Ti       9.72375      5.79427     11.14878         0.201405     -0.304537     -1.394634
Ti       9.72262      9.67603      2.30566        -0.514444      0.163306     -0.608261
Ti       9.74252      9.63943     15.59635         0.382066      0.854506     -1.361769
Ti       9.70730      9.78159      6.83519         0.018024     -0.398695     -2.122053
Ti       9.76451      9.59686     11.22468         0.365929      1.644864     -1.240329
O       2.04569      1.93291      0.65081        -0.011714     -0.168118      0.141795
O       2.00728      2.10152     13.76510         0.001718     -0.614296      1.764299
O       1.97757     13.62477      0.42969        -0.189613      0.225304      1.053509
O       2.18615     13.51796     13.75672        -0.231203      0.263679      1.553406
O      13.70267      2.01482      0.48570        -0.158803     -0.329594      1.903959
O      13.79129      1.93709     13.84573        -0.322173     -0.016815      1.259217
O      13.52856     13.43963      0.51502         0.582877      0.595908      1.401780
O      13.66981     13.68851     13.68211         0.155151     -0.196898      1.082606
O       1.82808      1.86028      4.95945         0.145573     -0.068647      0.950656
O       1.95982     13.78085      5.01576        -0.472389     -0.300242      1.208750
O      13.63949      1.84571      4.85733         0.062608      0.241069      1.483814
O      13.57140     13.70626      4.83636         0.317402      0.093326      1.557958
O       2.00260      1.91400      9.36258        -0.071356     -0.000966      0.591777
O       1.92953     13.60388      9.25965         0.069045      0.326896      0.771831
O      13.53456      1.92530      9.38377         0.352840     -0.107293      1.060904
O      13.60015     13.65704      9.29177        -0.085452      0.196600      1.526627
O       2.06998      5.82925      0.38972        -0.165941     -0.081941      2.076191
O       1.89940      5.69519     13.69874         0.342712      0.222155      0.747073
O      13.53543      5.68153      0.40495         0.423404      0.293493      2.130223
O      13.67605      5.80114     13.78872        -0.174568     -0.036849      0.059773
O       1.74331      5.86329      4.94883         0.469192      0.230627      1.446767
O      13.76148      5.86898      4.95143         0.009492     -0.068295      1.521546
O       2.08094      5.80213      9.28618        -0.196301     -0.257611      1.392517
O      13.71596      5.82264      9.38365         0.204344      0.170334      0.238156
O       1.91725      9.69196      0.60142        -0.012217     -0.204255     -0.017659
O       1.90489      9.80407     13.69084        -0.052191     -0.238751      0.788618
O      13.73567      9.88203      0.70252        -0.270944     -0.426877      1.020810
O      13.64481      9.81412     13.84073         0.181662     -0.132464      1.057475
O       2.27079      9.86786      4.97357        -1.080146     -0.417748      2.582864
O      13.61576      9.82858      4.88566         0.125333     -0.456808      2.086844
O       1.88181      9.60884      9.42827         0.445867      0.032830      1.141092
O      13.70743      9.64768      9.43861        -0.527095      0.215673      0.755791
O       5.92825      1.94475      0.53931        -0.456119     -0.118745      1.371382
O       5.78833      1.92584     13.75519         0.040579      0.050993      1.435832
O       5.86235     13.35526      0.42801        -0.026240      0.631605      1.484644
O       5.86527     13.71298     13.80615        -0.070709     -0.456883      1.072752
O       5.90141      1.85703      4.94454        -0.180046      0.348097      1.459385
O       5.94237     13.72238      4.91711        -0.355933     -0.242609      2.376445
O       5.96674      1.93801      9.32643        -0.356628     -0.032039      1.267099
O       5.73383     13.73418      9.35366         0.342276     -0.317223      0.045775
O       5.77073      5.79804      0.43677         0.344200      0.073715      1.697932
O       5.95367      5.75746     13.69372         0.051136      0.201854      1.693863
O       5.81034      5.83516      4.82675         0.007347     -0.082356      1.381856
O       5.94011      5.79588      9.29362        -0.220049      0.304628      1.412646
O       5.68985      9.52895      0.52167         0.759196      0.384326      1.463874
O       5.93460      9.71797     13.77390        -0.082067     -0.301293      0.477116
O       5.74459      9.87550      5.03771        -0.063863     -0.300641      0.875164
O       5.83396      9.63171      9.39872         0.008689      0.345582      1.392914
O       9.77828      1.92301      0.56326        -0.303309     -0.131870      1.695187
O       9.84098      1.85824     13.85361        -0.089883      0.246041      0.634695
O       9.71976     13.65973      0.50306        -0.139542     -0.033772      0.827286
O       9.76221     13.77395     13.73526        -0.197170     -0.277622      1.173540
O       9.69578      2.12452      4.88721        -0.054241     -0.416359      1.577250
O       9.73689     13.57308      4.91352        -0.110172      0.302861      1.940701
O       9.77968      1.88375      9.28828         0.094843      0.008704      1.435192
O       9.65560     13.71936      9.26660         0.311662     -0.369456      0.698775
O       9.78280      5.96174      0.48864         0.025368     -0.521275      0.967288
O       9.81008      5.58271     13.75061        -0.134870      0.381268      1.480885
O       9.72445      5.91448      5.03376        -0.040996     -0.316912      0.546386
O       9.65178      5.80548      9.32091         0.135326      0.315051      1.205440
O       9.61185      9.54901      0.45640         0.310301      0.038965      1.365175
O       9.94930      9.75815     13.73915        -0.762410     -0.395341      1.887157
O       9.72525      9.79898      4.93858        -0.112260     -0.134285      2.079291
O       9.85396      9.65978      9.39076        -0.293605     -0.018894      1.330265
O       3.94307      1.84124      2.89725        -0.548630      0.655843     -0.292625
O       3.91587      1.98674     16.05527        -0.776988     -0.288127     -0.199635
O       3.86201     13.64251      2.65608         0.063317     -0.119788     -0.121553
O       3.93906     13.52336     16.08144        -0.250977      0.305263     -0.342918
O      15.56687      1.90089      2.73796         0.771680      0.210392      0.001320
O       0.00108      1.77702     16.21270         1.060456      0.831168     -0.804061
O       0.00165     13.69328      2.75954         0.317349     -0.169287     -0.331781
O       0.03548     13.58875     15.75584         0.054988      0.307159      0.482493
O       3.86456      1.79142      7.07870        -0.134483      0.422195      0.043163
O       3.85413     13.69851      7.06682         0.273897      0.015186      0.473461
O      15.47465      1.86289      7.13386         0.836750      0.107880      0.032836
O      15.52861     13.60336      7.21352         0.284292      0.091415     -0.662148
O       3.95503      1.96457     11.62383         0.190889     -0.023641     -0.263489
O       3.90246     13.56383     11.49932         0.390152      0.440711      0.346963
O       0.12781      1.87164     11.58665        -0.747622      0.207339     -0.042409
O       0.06811     13.71168     11.52153        -1.224361     -0.574229      0.107344
O       3.93883      5.87684      2.67919        -0.544457     -0.090688      0.240397
O       3.90404      5.76694     15.85100         0.158102      0.351424      0.017728
O       0.07841      5.72493      2.46383        -0.512111      0.332784      0.440996
O      15.52443      5.85301     15.93284         1.045009      0.051177      0.344160
O       3.96704      5.74782      7.06078        -1.025087      0.397407      0.043616
O       0.02238      5.86265      7.26507        -0.485274      0.018391     -0.171082
O       3.95519      5.93520     11.43501         0.503481     -0.457780      0.246734
O       0.04978      5.88305     11.49578        -0.123599     -0.312279     -0.034709
O       3.92669      9.83450      2.78046         0.153089     -0.422777     -0.181683
O       3.88776      9.70306     15.87244        -0.021588     -0.018054      0.029955
O       0.02572      9.75657      2.90322        -0.140546     -0.088755     -0.195565
O      15.54457      9.74174     16.10839         0.353210     -0.275159     -0.607462
O       3.82592      9.72658      7.38940         0.405094     -0.019588     -0.313400
O      15.57543      9.73134      7.24464        -0.257250      0.248214     -0.666375
O       3.89388      9.59330     11.61290         0.384153      0.413524     -0.175723
O      15.57838      9.57535     11.54198         0.344172      0.564554      0.383808
O       7.73712      1.85814      2.81430         0.280977      0.243805      0.019089
O       7.77858      1.86926     15.91463        -0.238495      0.094351      0.251691
O       7.80046     13.56293      2.78972         0.062156      0.121702     -0.481847
O       7.77315     13.78028     15.92098         0.383917     -0.604225      0.131513
O       7.82789      1.96931      7.07454        -0.235434     -0.235153      0.303650
O       7.76871     13.57015      7.24771        -0.146910      0.433689     -0.505135
O       7.91024      1.99123     11.56635        -0.262603     -0.757296      0.057716
O       7.72406     13.66695     11.51872         0.816156     -0.176916      0.062916
O       7.76117      6.03011      2.55333         0.280405     -0.620968      0.256431
O       7.83195      5.70627     16.01347        -0.139354      0.556048     -0.313900
O       7.73662      5.78325      7.02940         0.255521     -0.003770      0.238602
O       7.82716      5.89464     11.61219         0.094407     -0.040436     -0.132999
O       7.84546      9.66321      2.83205        -0.613649     -0.083026     -0.434797
O       7.81472      9.71388     15.92355         0.111510     -0.730570      0.125981
O       7.71568      9.81990      7.20141         0.406028      0.232292      0.150224
O       7.83374      9.65486     11.58107        -0.011463      0.370020      0.064703
O      11.66357      1.96796      2.81651         0.080131     -0.062335     -0.263038
O      11.73736      1.87781     16.09330        -0.275862      0.336048     -0.170808
O      11.69145     13.58510      2.63105        -0.185985      0.352171      0.463844
O      11.70783     13.61287     15.84224        -0.388964      0.214938      0.311490
O      11.70298      2.00040      7.07884         0.408610     -0.449090      0.152437
O      11.69580     13.72944      7.04592        -0.664625     -0.437569      0.283349
O      11.77068      1.96783     11.61102        -1.077874     -0.210108     -0.070541
O      11.67810     13.63421     11.43408         0.548282      0.123832     -0.078482
O      11.72105      5.69535      2.74425        -0.271130      0.764964     -0.150881
O      11.71663      5.79140     15.88724        -0.660976     -0.235634      0.346487
O      11.72364      5.88953      7.23211        -0.066048     -0.153789     -0.377670
O      11.71708      5.80228     11.39657        -0.076587     -0.181461      0.649406
O      11.63486      9.62971      2.79778         0.673630      0.018080     -0.318863
O      11.67470      9.75221     16.07541         0.146297     -0.262596     -0.199521
O      11.61769      9.61478      7.12249         1.020359      0.882207      0.226554
O      11.72069      9.73364     11.68955        -0.002106     -0.009530     -0.405923
O       2.04993      3.90301      2.87551        -0.119541     -0.256041     -0.497649
O       1.97048      3.93558     15.88093        -0.629903     -1.135731      0.607067
O       2.09302      0.00244      2.71332        -1.071395     -0.727091     -0.250263
O       2.02811     15.58475     15.89045         0.226625     -0.174033      0.163910
O      13.58985      3.92753      2.84388         0.860064     -0.623658     -0.408937
O      13.70695      3.85913     15.97758        -0.154251     -0.163830      0.049382
O      13.67502     15.58241      2.59995        -0.236479     -0.072515      0.089114
O      13.64826     15.56182     15.97822         0.172627     -0.559141      0.365963
O       1.86904      3.82379      7.05256         0.205292      0.287028      0.428866
O       1.87240     15.56957      7.20038        -0.173739      0.153388     -0.021654
O      13.69412      3.90431      7.10172         0.021741     -0.025497     -0.062472
O      13.61999     15.54323      7.23518        -0.035272      0.558194     -0.775810
O       2.06579      3.85138     11.39966        -0.187641      0.692348      0.391161
O       1.98469     15.48631     11.59881         0.645078      1.121263     -0.043594
O      13.74373      3.82730     11.52461        -0.018586      0.744925      0.263579
O      13.66004      0.01031     11.65875         0.015760     -0.430722     -0.529649
O       1.98506      7.84150      2.81277        -0.121910     -0.985515     -0.113259
O       1.89850      7.80454     15.78220        -0.169458     -0.246348      0.345824
O      13.65543      7.72808      2.68878         0.280104     -0.094289      0.190770
O      13.58828      7.77765     16.02540         0.135579      0.575295     -0.119703
O       1.99175      7.76415      7.27603        -0.155460      0.040607     -0.789571
O      13.60282      7.84172      7.13392         0.501424     -0.136479     -0.019458
O       1.99691      7.67914     11.73891        -0.046581      0.664658     -0.447787
O      13.58087      7.76126     11.66670         0.295017      0.057574     -0.322246
O       1.97043     11.71691      2.67108        -0.480174      0.494851      0.111711
O       1.92860     11.63270     15.92209         0.171107      0.290515      0.206791
O      13.63053     11.67733      2.90124         0.367386      0.030605     -0.493076
O      13.65928     11.73792     16.00066        -0.101817     -0.677736     -0.267394
O       1.98584     11.68148      7.38197        -0.441677     -0.075026     -0.875997
O      13.51477     11.78544      7.25397         0.351986     -1.284678     -0.558596
O       2.05538     11.72882     11.45082        -0.473481     -1.421724      0.266416
O      13.64906     11.73197     11.54780         0.294005     -0.227282     -0.061438
O       5.84010      3.85700      2.63256         0.077969      0.471465      0.394369
O       5.81255      3.87868     15.99321         0.361299     -0.162662     -0.032820
O       5.83145     15.48519      2.58660         0.209088      0.442332      0.251571
O       5.76631     15.57506     16.10799        -0.173392     -0.034294     -0.318648
O       5.80795      3.84055      7.20936        -0.051309      0.166720     -0.498997
O       5.85468     15.57341      7.22615         0.266517     -0.113630     -0.067734
O       6.01621      3.89277     11.41964        -0.565054      0.343422      0.295552
O       5.86077      0.01032     11.51850         0.047563      0.352774      0.231510
O       5.81516      7.80693      2.77139        -0.196072     -0.188891      0.120551
O       5.78829      7.70583     16.01331         0.622676      0.262037     -0.492842
O       5.90547      7.87990      7.12783        -0.623153     -1.496483     -0.085474
O       5.93323      7.81647     11.54835        -0.140025     -0.572734      0.307225
O       5.89384     11.70332      2.74518        -0.070659     -0.891875      0.042972
O       5.93853     11.59716     15.96763        -0.180628      0.428906     -0.197107
O       5.70029     11.68768      7.21347         0.256550      0.964629      0.196021
O       5.84141     11.71026     11.50083         0.271766     -0.923112      0.273718
O       9.62411      3.92712      2.67462        -0.193745     -0.207732      0.200885
O       9.69175      3.80850     16.03311         0.458558      0.694835      0.158593
O       9.73086     15.53949      2.71553         0.152118      0.197973      0.111487
O       9.75542      0.02532     16.09253         0.133200     -0.691512     -0.189294
O       9.80999      3.85930      7.26802        -0.319497      0.764967     -0.558584
O       9.78637      0.00172      7.10524        -0.341854     -0.204921     -0.220542
O       9.72143      3.88371     11.43023         0.387307     -0.341276      0.319125
O       9.80208     15.48493     11.48357        -0.198209      1.743305      0.229154
O       9.76945      7.65547      2.88291         0.141340      0.825881     -0.293260
O       9.80125      7.68874     15.94882        -0.282595      0.480646     -0.357046
O       9.60884      7.87489      7.21361         0.111388     -1.068437     -0.057390
O       9.81137      7.75986     11.60919        -0.073634     -0.400844     -0.020385
O       9.77110     11.57369      2.58767        -0.106751      0.250226      0.079811
O       9.68555     11.71331     15.94635        -0.036517     -0.012736     -0.103233
O       9.67884     11.68129      7.30012         0.672452      0.437491     -0.294126
O       9.73274     11.72755     11.55881        -0.043662     -0.178774      0.011376
