  # total energy = -7879.54160730 
CRSYTAL
PRIMVEC
    15.6000000000000000    0.0000000000000000    0.0000000000000000
     0.0000000000000000   15.6000000000000000    0.0000000000000000
     0.0000000000000000    0.0000000000000000    17.640000000000000
PRESSURE
-5.47345 -5.2952 0.382509 0.138924 -0.109857 -0.013142
PRIMCOORD
320 1
Pb       3.95451      3.90140      4.31487        -0.043471     -0.117892     -0.171856
Pb       3.90311      3.77697     17.58793        -0.031048      0.571523     -0.680509
Pb       3.87873     15.58781      4.43038         0.176009      0.067449     -1.285102
Pb       3.93240      0.04198     17.58572        -0.067706     -0.515117      0.100567
Pb      15.52476      3.84465      4.31392         0.668612      0.073268     -0.043557
Pb       0.00644      3.76979     17.51573        -0.031254      0.546226      0.329093
Pb       0.01327      0.02982      4.35605         0.022104     -0.519518     -0.937524
Pb       0.06369     15.57098      0.03350        -0.972688     -0.551965     -0.415321
Pb       3.88147      3.86252      8.75880        -0.039703      0.329382     -0.716460
Pb       3.87807      0.02723      8.79558        -0.023357     -0.309856     -0.433725
Pb       0.04304      3.84423      8.82396        -0.281513     -0.084415     -1.208910
Pb      15.58910      0.10140      8.82173         0.029261     -0.476525     -0.267025
Pb       3.83365      3.98292     13.15591        -0.155637     -0.152270     -0.260179
Pb       3.95678      0.09220     13.19890        -0.267203     -0.462111     -0.515771
Pb       0.00410      3.88140     13.24726         0.392562     -0.054706     -0.721989
Pb      15.54450     15.56432     13.22661         0.120741     -0.171912     -0.631802
Pb       3.90134      7.78004      4.25205         0.089169     -0.043589     -0.055810
Pb       3.87252      7.77034     17.58427         0.096198      0.269257     -0.566901
Pb      15.55723      7.60869      4.39091        -0.118549      0.255852     -0.670774
Pb      15.53774      7.76754     17.59672         0.054875     -0.034263     -0.471419
Pb       3.80260      7.75108      8.76643         0.410016     -0.006533     -0.592412
Pb       0.05898      7.85115      8.68606        -0.953040     -0.507927     -0.341587
Pb       3.88889      7.85370     13.19722         0.312357     -0.199937     -0.988546
Pb      15.54688      7.77539     13.17652        -0.351236      0.243537     -0.630786
Pb       3.90196     11.60544      4.32503         0.065868     -0.036088     -0.700533
Pb       3.85170     11.64995     17.55389         0.106440     -0.161869     -0.248779
Pb       0.07236     11.70802      4.43654        -0.382609      0.012017     -1.231535
Pb       0.03413     11.60272      0.01654        -0.318269      0.681408     -0.620535
Pb       3.87477     11.74500      8.78894        -0.065419      0.325281     -0.623332
Pb       0.01937     11.54091      8.74125         0.109031      0.930612      0.141256
Pb       3.93567     11.55667     13.20427        -0.517269      0.856866     -0.020456
Pb       0.06283     11.68052     13.23868        -0.244831      0.312472     -0.246900
Pb       7.75774      3.89337      4.28989         0.303189     -0.023962     -0.158665
Pb       7.84479      3.86055     17.62877        -0.211681     -0.079188     -0.979769
Pb       7.84745     15.58932      4.39686        -0.230346     -0.071275     -0.736972
Pb       7.77989     15.52382     17.58738         0.361375      0.038957     -0.260809
Pb       7.87655      3.89875      8.77164        -0.193366     -0.024519     -0.852001
Pb       7.72756      0.04070      8.74510        -0.080797      0.192723     -0.796014
Pb       7.63350      3.81642     13.20439         0.265945      0.320096     -0.281724
Pb       7.78065      0.00503     13.13069         0.092471     -0.174882     -0.183308
Pb       7.70628      7.73249      4.32290         0.159572     -0.084846      0.051054
Pb       7.78383      7.73478     17.51419        -0.052417      0.191496     -0.375199
Pb       7.81398      7.82635      8.79381         0.086621     -0.118902     -0.476687
Pb       7.86484      7.66623     13.24435        -0.140251      0.553334     -1.429539
Pb       7.70000     11.58092      4.30376         0.547403      0.175315     -0.422971
Pb       7.79106     11.64219     17.50550        -0.217544      0.317765     -0.181950
Pb       7.76653     11.63426      8.67760         0.007125      0.190982     -0.052048
Pb       7.74651     11.61052     13.21059        -0.053823      0.191517     -1.258418
Pb      11.72382      3.82916      4.27386        -0.727123      0.461785     -0.395555
Pb      11.57633      3.85504     17.55046         0.268004      0.075827      0.154806
Pb      11.77877      0.05328      4.32160        -0.406463     -0.947497     -0.264848
Pb      11.80670      0.04697     17.57966        -0.100788     -0.600202     -0.658971
Pb      11.70542      3.88799      8.78587         0.197205     -0.254227     -0.994941
Pb      11.55566      0.01413      8.79972         0.284317     -0.221872     -0.443878
Pb      11.64856      3.82049     13.19683        -0.139380      0.291205     -0.685534
Pb      11.69825      0.08615     13.24527        -0.437394     -0.670038     -0.545081
Pb      11.62149      7.83203      4.41755         0.118079      0.023703     -0.655745
Pb      11.78583      7.84419      0.00510        -0.252479      0.092919     -0.487624
Pb      11.76453      7.79884      8.79137        -0.019422     -0.096516     -0.703441
Pb      11.66665      7.85692     13.17463        -0.125837     -0.073825     -1.090749
Pb      11.69266     11.63906      4.52404        -0.295797      0.190973     -1.410579
Pb      11.57309     11.74791      0.10641         0.377314      0.217723     -1.166058
Pb      11.56466     11.76044      8.90172        -0.290621      0.162798     -0.510612
Pb      11.73990     11.67863     13.35677        -0.081612      0.471092     -1.144425
Ti       1.90086      1.94432      2.30123         0.214812     -0.736323      1.752575
Ti       1.86637      1.87823     15.62460         0.245083      0.557492      0.346502
Ti       1.91693     13.53508      2.32085        -0.342725      1.169765      0.862083
Ti       1.88278     13.64435     15.69548        -0.780500     -0.587991     -0.758946
Ti      13.54888      1.86419      2.38737         1.220025      0.476183     -0.664692
Ti      13.62956      2.03027     15.52692        -0.563796     -2.194432      2.312013
Ti      13.56123     13.53681      2.34464         0.380744      0.288357      0.097938
Ti      13.52166     13.56370     15.59185         0.661676      0.958099      1.283984
Ti       1.92985      1.86689      6.68939        -0.260990      0.979746      2.586453
Ti       1.92276     13.59300      6.69560         0.040567      0.395172      0.360019
Ti      13.66230      1.84580      6.68135        -0.549465      0.423352      1.498146
Ti      13.68390     13.59875      6.77119        -0.581128      1.389691     -0.654930
Ti       1.89748      1.95331     11.17720         0.048013      0.002995      3.461156
Ti       1.90252     13.69138     11.20042         0.213710     -0.263209      1.141542
Ti      13.57844      2.02580     11.23092         0.787927     -0.824581     -0.192114
Ti      13.56405     13.68417     11.19715        -0.291410     -0.484835      2.313571
Ti       1.97810      5.79826      2.38313         0.323264     -0.444894     -0.500986
Ti       1.93579      5.80191     15.53907         0.033033     -0.058784      1.888433
Ti      13.63848      5.76468      2.31124        -0.567301      0.668114      0.552949
Ti      13.63852      5.80740     15.54855         0.127466      0.186150      2.279443
Ti       1.86924      5.87446      6.67905         0.304448     -1.471255     -0.933110
Ti      13.59047      5.84759      6.65493         0.331162      0.082801      1.308601
Ti       1.82074      5.93031     11.12269         0.719427     -0.516867      2.849106
Ti      13.57409      5.79798     11.07704        -0.161379      1.823886      1.728901
Ti       1.90864      9.68526      2.29237        -0.082059      0.549276      0.842513
Ti       1.90688      9.69711     15.55294        -0.029495      0.992402      0.906093
Ti      13.63819      9.70820      2.24600        -0.312341      0.163962      1.524022
Ti      13.63869      9.74250     15.58472        -0.779255      0.694337      2.876864
Ti       1.89637      9.72672      6.69026         0.986865      0.283912     -0.471108
Ti      13.57394      9.90378      6.82295        -0.435304     -1.794138      1.568156
Ti       1.89068      9.79876     11.21374         0.134214     -0.079179      2.827934
Ti      13.57256      9.75121     11.16215         0.871646     -0.195544      1.783910
Ti       5.83310      1.91426      2.29896        -0.397331     -0.699527      2.376573
Ti       5.82585      1.87621     15.62435         0.544386      1.276470      1.682462
Ti       5.79239     13.61204      2.42045         0.291179      0.309291      1.183826
Ti       5.78824     13.67324     15.51296         0.238437     -0.531184     -0.157907
Ti       5.76405      2.01583      6.73901         1.026508     -0.306837      1.149659
Ti       5.82112     13.67433      6.71628        -0.239092      0.174762      1.049898
Ti       5.80463      1.98249     11.14731        -0.102959     -0.415605      0.637597
Ti       5.73416     13.66534     11.16242         0.329348     -0.165966      1.496905
Ti       5.86138      5.81572      2.16747         0.277937      0.109168      1.845379
Ti       5.82721      5.83227     15.51168         0.186578     -0.658067      2.353471
Ti       5.84246      5.87800      6.77429         0.320367      0.018127      0.519636
Ti       5.81476      5.83763     11.16193         0.173558      0.623806      0.610218
Ti       5.85923      9.64743      2.26142        -0.221239      1.173433     -0.511426
Ti       5.85450      9.77098     15.47798        -0.087625     -0.071760      2.669398
Ti       5.77064      9.72127      6.75613         0.248078     -0.046923      1.365341
Ti       5.80521      9.79610     11.02643         0.913516     -0.827295      3.403303
Ti       9.67957      1.83761      2.28054        -0.490914      0.679691      1.973607
Ti       9.76128      1.94100     15.54135        -0.689977     -0.896099      1.179945
Ti       9.67077     13.51723      2.37111         0.745826      0.300958      3.823158
Ti       9.68999     13.66901     15.43370         0.503961      0.452473      1.650261
Ti       9.75884      1.89582      6.69751        -0.553628      0.270946      2.074329
Ti       9.71532     13.65297      6.66358         0.461907     -0.373053      0.383952
Ti       9.67644      2.01156     11.14521         0.243842     -1.019119      0.691070
Ti       9.63448     13.67420     11.18650         0.611807     -0.399599      1.945177
Ti       9.78383      5.86715      2.27925        -0.481041     -1.237817      2.987507
Ti       9.83168      5.90458     15.50943        -1.387825     -0.474685      2.498656
Ti       9.75689      5.80317      6.72199        -0.236752      0.170417      1.381672
Ti       9.71239      5.78335     11.12627        -0.294043      1.340913      1.616468
Ti       9.74314      9.69421      2.26528         0.301267      0.373720      2.392162
Ti       9.75152      9.73746     15.50652         0.043879      0.426239      3.718886
Ti       9.73513      9.75448      6.76980        -0.417063     -0.821408      0.355642
Ti       9.77342      9.81056     11.12344        -1.058996     -0.382127      1.890515
O       1.75056      1.91041      0.56609         0.426119      0.395444     -0.797063
O       1.87227      1.97312     13.90542         0.028512     -0.291974     -0.453703
O       1.87064     13.57460      0.58830         0.301758      0.073439     -0.916687
O       1.83419     13.56824     13.96601        -0.143009      0.498225     -0.584629
O      13.55739      1.87383      0.63933         0.130829      0.163226     -0.341676
O      13.58215      2.04569     13.82279        -0.130483      0.179775     -1.966985
O      13.40851     13.64502      0.60062         0.143598     -0.208024     -0.052159
O      13.56961     13.56203     13.85784        -0.096329      0.103344     -1.371845
O       1.85740      1.88801      5.00245         0.131810     -0.280496     -1.195440
O       1.88684     13.72513      4.91750        -0.035251     -0.492845      0.466424
O      13.69142      1.74616      4.93888        -0.206086      0.673725     -0.347016
O      13.68708     13.65482      5.01366         0.097013     -0.487798     -0.112267
O       1.83134      1.98544      9.51922        -0.062235      0.080570     -3.290593
O       2.05797     13.54882      9.49649        -0.133774      0.084358     -0.949347
O      13.62036      2.03878      9.49661         0.152846     -0.030336     -0.616685
O      13.54047     13.72993      9.52329         0.053356     -0.106667     -1.823202
O       2.05434      5.65438      0.63090        -0.247650      0.516224      0.163973
O       1.94391      5.85080     13.83137        -0.415493      0.036845     -1.133324
O      13.48941      5.82385      0.58754         0.635403     -0.122443     -0.105691
O      13.74581      5.75443     13.85727        -0.540380      0.204491     -1.123998
O       1.85765      5.86510      4.88346         0.297614      0.314752      0.757360
O      13.61153      5.98021      4.91267         0.080952     -0.411856     -0.805498
O       1.96990      5.86591      9.43721        -0.220224      0.032467     -1.731307
O      13.54097      5.91612      9.38830         0.316398     -0.302852     -1.687918
O       1.93439      9.77399      0.55870        -0.079908     -0.124170     -0.509505
O       1.83286      9.88674     13.80114         0.390238     -0.820658      0.387776
O      13.59404      9.70417      0.51122        -0.017686     -0.078570     -0.312326
O      13.54069      9.76110     13.90502        -0.033959     -0.288864     -1.973631
O       2.01683      9.79598      4.95130        -0.454652     -0.056271     -0.301224
O      13.50644      9.91749      5.14277        -0.033813     -0.096943     -1.774717
O       1.87423      9.67500      9.53211        -0.296303      0.279962     -2.453193
O      13.65873      9.67076      9.45320         0.177809      0.189139     -1.919332
O       5.86363      1.87627      0.58358        -0.335860      0.148326     -1.108080
O       5.75601      1.81432     13.91968         0.157761      0.142495     -1.281971
O       5.80475     13.65412      0.74053        -0.019838     -0.043807     -2.134908
O       5.84783     13.68677     13.75150         0.024874      0.288222      0.808670
O       5.74098      2.02337      5.03215        -0.052678     -0.185044     -0.812868
O       5.84796     13.79673      4.99204        -0.220127     -0.506518     -0.273618
O       5.88740      1.91699      9.41878        -0.127873      0.218632     -0.483562
O       5.61452     13.57580      9.42645         0.263773      0.173487     -0.469665
O       5.92576      5.91954      0.42875        -0.444986     -0.358895     -0.082363
O       5.81978      5.76459     13.81365         0.060475      0.290710     -1.531943
O       5.93903      6.01707      5.05462        -0.291630     -0.320107     -0.516300
O       5.85044      5.86247      9.42607        -0.241594      0.036860     -0.279010
O       5.74509      9.76621      0.50984         0.274294     -0.206877      0.274506
O       5.80635      9.79736     13.78612         0.092408     -0.143750     -1.207033
O       5.81888      9.69108      5.04626        -0.082880      0.048281     -1.418802
O       5.84276      9.72421      9.31843        -0.306478      0.185755     -0.967662
O       9.56400      1.90912      0.59018         0.369182      0.030217     -1.348568
O       9.83233      1.89336     13.79742        -0.058468      0.578818     -0.527632
O       9.66805     13.39429      0.73046         0.281719      0.061766     -3.697099
O       9.75020     13.87684     13.72591        -0.276085     -0.597520     -0.570166
O       9.75270      1.82813      5.00711         0.157623      0.045548     -1.743932
O       9.67209     13.54782      4.91849         0.122413      0.319714      0.570113
O       9.72485      2.01916      9.39693        -0.243718     -0.359735      0.004366
O       9.76166     13.65079      9.48039        -0.078884      0.012867     -1.799943
O       9.61300      5.81269      0.62055        -0.001956      0.048332     -2.465733
O       9.87777      5.92367     13.80650        -0.152426     -0.091749     -1.324056
O       9.75940      5.79124      5.02217         0.037869      0.062692     -1.090814
O       9.62021      5.87548      9.43296         0.118634     -0.372803     -1.730715
O       9.76763      9.63968      0.57573         0.003779      0.247716     -1.645328
O       9.84219      9.63547     13.84901        -0.133991     -0.199640     -2.746394
O       9.76120      9.70009      5.02197         0.296834      0.159608     -0.083305
O       9.67123      9.78389      9.41930         0.314691      0.154849     -1.694923
O       3.90057      1.87945      2.83514        -0.491608      0.732639     -0.421804
O       3.85989      1.95153     16.07672        -0.682850     -0.692310      0.039352
O       3.87553     13.59840      2.77380        -0.429700     -0.250705      0.342478
O       3.86677     13.75061     15.88804         0.324899     -0.206847      0.633816
O       0.00078      1.98495      2.80018         0.290785     -0.095264     -0.036728
O      15.48511      1.90305     15.94014         0.729815      0.117219      0.285337
O      15.55733     13.61545      2.63693         0.332627     -0.094226      0.666629
O      15.47089     13.62928     16.03794         0.522767     -0.040001      0.428438
O       3.80175      1.98341      7.24165         0.148515     -0.160245     -0.215053
O       3.81566     13.61091      7.18621         0.607122      0.124848     -0.179385
O      15.54916      1.88472      7.28304         0.084542      0.026213     -0.307680
O       0.01458     13.56935      7.14586         0.128928      0.122827      0.333532
O       3.86616      2.02917     11.56952         0.278578     -0.347111      0.061262
O       3.90404     13.71081     11.72469        -0.312078      0.027310     -0.218780
O      15.58915      1.94292     11.57054        -0.863867      0.265293      0.623627
O      15.59182     13.65931     11.55256        -0.643576      0.428287      0.334525
O       4.01779      5.83839      2.76146        -0.719259     -0.062224     -0.114827
O       3.79641      5.73605     15.86027         0.521093      0.604902      0.522162
O       0.09575      5.71483      2.75749        -1.223072      0.860589     -0.100313
O      15.48668      5.83421     16.03542         0.633623      0.131814     -0.011329
O       3.90399      5.79686      7.12877        -0.635739      0.387415      0.407037
O       0.00137      5.92262      7.03322        -0.234022      0.014999      0.459715
O       3.92382      5.83027     11.63000        -0.497002      0.123746     -0.093876
O      15.53113      6.00075     11.56479         0.910905     -0.771223     -0.285129
O       3.93898      9.78574      2.65774        -0.573722     -0.118694      0.520438
O       3.82675      9.74911     16.04906         0.243024      0.209459     -0.593910
O      15.52218      9.68951      2.73924         0.490685      0.154115     -0.039345
O      15.52812      9.81462     16.05401         0.628421     -0.549875     -0.280451
O       3.75069      9.72117      7.12925         1.114599     -0.422293      0.445295
O      15.55157      9.79327      7.09410         0.229204     -0.296240      0.521737
O       3.85395      9.74288     11.64783        -0.027701      0.328114     -0.392366
O      15.53492      9.71996     11.77912         0.795581     -0.264658     -0.680785
O       7.67196      1.94642      2.77482         1.029326     -0.452304      0.179236
O       7.76487      1.92491     16.04158        -0.008519      0.116917     -0.349796
O       7.85421     13.57983      2.73366        -1.719116      0.205830      0.731409
O       7.75503     13.58439     16.07252         0.221060      0.581726     -0.487631
O       7.78831      1.90280      7.08870        -0.190963     -0.243774      0.448853
O       7.72608     13.69053      7.07763         0.338541     -0.105841      0.387971
O       7.76096      1.96992     11.69591        -0.154399     -0.078508     -0.362431
O       7.69548     13.59376     11.60384         0.009182      0.155501     -0.118333
O       7.71078      5.95942      2.82401         0.205709     -0.704236     -0.624859
O       7.72630      5.63729     15.89859         0.506516      1.044364     -0.096787
O       7.76511      5.79032      7.17693         0.681387     -0.065810      0.255219
O       7.75431      5.81217     11.59082        -0.360535      0.466982      0.615503
O       7.83947      9.73112      2.63117        -0.966456     -0.529114      0.361002
O       7.77438      9.72282     16.00532         0.022538      0.178567     -0.488400
O       7.75886      9.82686      7.21021         0.290267     -0.499160     -0.173900
O       7.82683      9.75559     11.50889        -1.124812      0.513071      0.358995
O      11.66916      1.97805      2.71819        -0.265129     -0.274172      0.278692
O      11.64344      1.87210     15.98006         0.553149      0.959331      0.071315
O      11.71481     13.61500      2.82631        -0.322749      0.107826      0.273129
O      11.56375     13.68963     16.00019         0.150789     -0.473255      0.102113
O      11.67265      1.91947      7.23829         1.129004     -0.021717     -0.326505
O      11.66481     13.65808      7.10440        -0.054326     -0.434172      0.288111
O      11.65167      1.93652     11.51410        -0.478403      0.886773      0.627497
O      11.57678     13.56989     11.61308         1.406599      0.353762      0.131528
O      11.66687      5.66734      2.64326         0.415787      0.146132      0.420827
O      11.64108      5.84047     16.06905         0.729994     -0.117992     -0.514319
O      11.72035      5.78663      7.12373        -0.946274     -0.090623      0.186093
O      11.58602      5.83663     11.45459         0.678221     -0.235740      0.502390
O      11.67629      9.78388      2.77322         0.361387     -0.560657      0.049236
O      11.60062      9.71122     16.03705         0.623647     -0.376469     -0.061180
O      11.66491      9.78361      7.36715         0.196526      0.187148     -0.477368
O      11.70232      9.80177     11.61937        -0.098193     -0.474242      0.049668
O       2.03080      3.91203      2.85713        -0.028017     -0.730953     -0.292935
O       1.82145      3.89425     15.99356         0.060150     -0.480507      0.022676
O       1.96279     15.59826      2.64428        -0.272494      0.193292      0.366838
O       1.77200     15.59944     16.04137         0.669063      0.219780      0.119002
O      13.70542      3.86894      2.82180        -0.468811      0.020734      0.012296
O      13.66115      3.83036     16.00500        -0.682504      1.200243     -0.072480
O      13.67066      0.03386      2.74055        -0.248563     -0.778511      0.382378
O      13.53482     15.52899     15.96399         0.094790      0.918353      0.126690
O       1.84337      3.85916      7.12240         0.086602      0.188596      0.372784
O       1.95776     15.54972      7.29934        -0.376119      0.257960     -0.491777
O      13.70693      3.94623      7.12419        -0.146347     -0.926173     -0.064432
O      13.62904     15.54860      7.03372         0.247403      0.682388      0.799156
O       1.83986      3.88540     11.69558         0.152057      1.011565     -0.328811
O       1.92086      0.03008     11.55765         0.051927     -0.145259      0.405692
O      13.56896      3.99614     11.54949         0.246678     -1.324519      0.567369
O      13.56156      0.10795     11.58952         0.294523     -1.083500      0.460485
O       1.98760      7.84551      2.67370        -0.016561     -1.188892      0.258245
O       1.93726      7.84008     16.05513        -0.461189     -0.807326     -0.370461
O      13.60466      7.74683      2.71411         0.072696     -0.166899      0.033436
O      13.66729      7.81962     16.11717        -0.386015     -0.630729     -0.659672
O       1.87896      7.74830      7.06770         0.265335      0.859632      0.554319
O      13.51183      7.75888      7.12055         0.556297      0.766002      0.357851
O       2.06456      7.83142     11.51112        -0.688077     -0.634811      0.502380
O      13.65814      7.74902     11.54045        -0.681641      0.411828      0.732108
O       1.92668     11.63371      2.67223        -0.114354      0.202322      0.717001
O       1.84390     11.71549     16.04689         0.510547     -0.617077      0.350765
O      13.62016     11.64807      2.71299         0.082228     -0.135612      0.154973
O      13.51834     11.70303     16.03602        -0.130980     -0.893505      0.013837
O       1.99038     11.66604      7.12165        -0.702509      0.005095      0.123636
O      13.67415     11.75725      7.24778        -0.293389     -0.599093      0.404123
O       1.91597     11.75467     11.67897         0.093753     -0.675119     -0.330710
O      13.68876     11.61043     11.58754        -0.354195      1.114349     -0.062489
O       5.88496      3.87961      2.87363        -0.454903      0.553588     -1.140250
O       5.71258      3.85610     15.98748         0.219914     -0.085197      0.110487
O       5.74989     15.58740      2.80949         0.465502     -0.094941      0.104503
O       5.85522     15.57616     16.15023        -0.254612     -0.251002     -0.468477
O       5.82012      3.86950      7.22403        -0.146217      0.327545      0.082152
O       5.75678      0.06663      7.20212        -0.083367     -0.921760      0.169403
O       5.81648      3.88257     11.63076         0.201115      0.248295     -0.035832
O       5.88172      0.06680     11.57988        -0.527596     -0.458340     -0.078089
O       5.73186      7.78168      2.69835         0.651429     -0.009756     -0.185034
O       5.83020      7.85298     15.93191        -0.223212     -0.925173     -0.223368
O       5.91622      7.81540      7.15896        -0.574369     -0.042481      0.508593
O       5.80824      7.93182     11.62892        -0.024144     -1.089332     -0.178397
O       5.86676     11.64215      2.77787        -0.039371     -0.099467      0.391759
O       5.91108     11.72144     15.89402        -0.743133      0.021475      0.146566
O       5.81070     11.66033      7.16666        -0.320555      0.695416     -0.145089
O       5.72489     11.67633     11.73706         0.596610      0.053814     -1.102447
O       9.65413      3.79327      2.69007        -0.019262      0.560229      0.429042
O       9.72029      3.86840     16.08577         0.297181      0.243908     -0.516481
O       9.66765     15.57049      2.74046         0.289788      0.143342      0.081252
O       9.78224      0.02233     15.93333        -0.883312     -0.143100      0.280945
O       9.75677      3.76655      7.13703        -0.062735      1.496296      0.293982
O       9.78550     15.54991      7.16962        -0.497929     -0.179112      0.091741
O       9.53358      3.88590     11.52337         0.935084     -0.057233      0.393165
O       9.69963      0.00575     11.57605        -0.233312      0.586634     -0.218386
O       9.78704      7.68898      2.77095         0.177817      0.990751      0.028368
O       9.64286      7.76624     16.02803         0.169203     -0.601695     -0.526546
O       9.73530      7.77408      7.08786         0.012452     -0.066387      0.429417
O       9.68748      7.86734     11.52612         0.306951     -0.895427      0.729921
O       9.71313     11.59359      2.79340         0.239811     -0.025571      0.097922
O       9.78895     11.72518     15.76071        -0.598116     -0.480971      0.294717
O       9.75718     11.63713      7.17900        -0.174862      1.309143      0.120864
O       9.72569     11.69305     11.57737        -0.183462      0.136632      0.361915
