  # total energy = -7881.22322280 
CRSYTAL
PRIMVEC
    15.3600000000000000    0.0000000000000000    0.0000000000000000
     0.0000000000000000   15.3600000000000000    0.0000000000000000
     0.0000000000000000    0.0000000000000000    17.440000000000000
PRESSURE
2.14536 1.66965 -1.94959 -0.033814 -0.138061 -0.004397
PRIMCOORD
320 1
Pb       3.82527      3.86376      4.22727        -0.228013      0.087132      0.436892
Pb       3.76710      3.90642     17.33985         0.277920     -0.416737      1.107499
Pb       3.87896      0.00189      4.21870        -0.539744      0.095252      0.693104
Pb       3.98154      0.04127      0.02142        -0.686082     -0.478092      0.240178
Pb      15.23481      3.93607      4.28858         0.657831     -0.822060      0.476335
Pb      15.20233      3.73327     17.37116         0.493084      0.096336      0.292918
Pb      15.24300     15.32190      4.34100         0.226598      0.492521      0.172150
Pb       0.12365      0.01233     17.40965        -0.700552     -0.031898      0.277614
Pb       3.96553      3.88998      8.56666        -0.726902     -0.150533      1.153115
Pb       3.77724     15.26157      8.75267         0.264665      0.273124     -0.578116
Pb       0.15899      3.68844      8.65438        -0.675625      0.462751      0.958315
Pb       0.17933     15.30056      8.57434        -0.971397      0.316119      0.568402
Pb       3.88389      3.94841     13.07420        -0.584624     -0.335760      0.531679
Pb       4.01760     15.33399     13.23406        -0.758793      0.003172     -0.017251
Pb      15.23761      3.88146     12.94460         0.559084     -0.260577      0.413399
Pb      15.31910      0.03342     12.99296         0.497437     -0.116932      0.927374
Pb       3.78682      7.65544      4.31024         0.327818     -0.415435      0.127086
Pb       3.85406      7.78299     17.43952         0.056006      0.055635      0.111335
Pb      15.18880      7.43799      4.29321         0.115486      1.443694      0.735329
Pb       0.20065      7.65736     17.41505        -0.848586      0.459275     -0.038931
Pb       3.80155      7.56836      8.65436         0.088522      0.223463      0.413196
Pb      15.30153      7.70357      8.64218         0.248281     -0.480434      1.077255
Pb       3.81918      7.83092     13.08753         0.516742     -0.707226      0.336982
Pb      15.32168      7.74443     12.90984        -0.117802     -0.050694      0.487255
Pb       3.85287     11.40944      4.35384         0.249875     -0.124926     -0.005447
Pb       3.70938     11.43131     17.43503         0.316405      0.216893      0.396306
Pb      15.34556     11.40876      4.28090        -0.311424     -0.255246      0.743098
Pb       0.08889     11.38563      0.08660        -0.065072      0.033463     -0.462261
Pb       3.72448     11.49382      8.67142         0.686313     -0.304706      0.000860
Pb       0.10657     11.61660      8.59371        -0.689498     -0.659462      0.589717
Pb       3.73677     11.58702     12.99772         0.462492     -0.200990      0.934940
Pb      15.12308     11.43114     12.99735         0.462355     -0.192802      0.808689
Pb       7.57635      3.95585      4.25399         0.291342     -0.701250      0.973961
Pb       7.71029      3.83404     17.32914        -0.426590      0.004803      0.863462
Pb       7.56484     15.34467      4.19389         0.320153      0.279579      0.822305
Pb       7.81489     15.26062      0.00388        -0.060056      0.375147      0.249263
Pb       7.71153      3.76614      8.67766        -0.493786      0.196333      0.045830
Pb       7.69537      0.05443      8.67710        -0.424928     -0.491041     -0.059224
Pb       7.48708      3.66476     13.02361         1.068400      0.478778      0.380399
Pb       7.72152     15.05590     13.13241        -0.541256      1.109530      0.471638
Pb       7.59542      7.78453      4.35242        -0.014142     -0.435907      0.507257
Pb       7.77963      7.49984     17.36627        -0.446104      1.013743      0.256073
Pb       7.63296      7.61161      8.69999        -0.294319      0.269282      0.282014
Pb       7.74020      7.62050     13.05344        -0.644718      0.255166      0.273412
Pb       7.66429     11.50863      4.25217        -0.409046     -0.142099      1.295788
Pb       7.69520     11.45113     17.32929        -0.089931     -0.269044      1.113109
Pb       7.76399     11.42844      8.79310        -0.831271      0.114889     -0.376382
Pb       7.58020     11.53012     13.07628        -0.209989     -1.006162      0.336529
Pb      11.57924      3.91102      4.37300        -0.452001     -0.029268     -0.070636
Pb      11.27031      3.78157     17.31135         0.805969      0.277713      0.285796
Pb      11.48547      0.14676      4.29673        -0.032956     -0.172098      0.232974
Pb      11.70184      0.04621     17.31778        -0.365299     -0.028415      0.408070
Pb      11.68422      3.70644      8.68412        -0.194667      0.077027      0.654264
Pb      11.50909     15.31666      8.62726         0.107401      0.177199      0.977051
Pb      11.41300      3.91331     12.89018        -0.219476     -0.133336      0.262649
Pb      11.42049     15.29849     13.09003         0.189609     -0.227998      0.221988
Pb      11.53341      7.68350      4.37531         0.025333      0.070015      0.062782
Pb      11.43572      7.65826     17.32514         0.128943      0.393271      0.816267
Pb      11.45388      7.59005      8.65820         0.521418      0.120313      0.726321
Pb      11.62430      7.70668     12.95766        -0.226871     -0.235906      0.469817
Pb      11.39421     11.56483      4.37148         0.255270     -0.328637      0.324228
Pb      11.64637     11.57517     17.40346        -0.299583     -0.409540      0.528573
Pb      11.34587     11.52450      8.75512         0.591267     -0.219794     -0.142890
Pb      11.38738     11.56870     13.03488         0.485865     -0.097709      0.304426
Ti       1.91992      1.87156      2.30388        -0.713482      0.584242      0.782977
Ti       1.92525      1.97648     15.43505        -0.338492     -0.418811     -1.987696
Ti       1.81578     13.39210      2.39914         0.745551      0.104576     -1.566678
Ti       1.86544     13.48775     15.49925         0.780143     -0.883809      0.516112
Ti      13.44873      1.94834      2.31310        -0.184204      0.137048     -0.185339
Ti      13.41272      1.98087     15.21383        -0.158337     -0.881010      1.520476
Ti      13.38099     13.46244      2.46341        -0.719451     -0.301557     -1.475663
Ti      13.47349     13.41775     15.43568        -0.372507     -0.131136     -1.099642
Ti       1.94418      1.91707      6.66181        -0.173142     -0.180880     -1.672754
Ti       1.90265     13.33825      6.58132        -0.334046      1.248936     -0.431309
Ti      13.42281      1.80228      6.74182         0.880967      0.963203     -0.942071
Ti      13.32914     13.33227      6.71492         1.070124      0.946886     -1.241586
Ti       1.92491      1.90069     11.12730         0.346669     -0.100578     -0.021940
Ti       1.88116     13.44036     11.08968         0.123412     -0.057330     -0.230207
Ti      13.39759      1.81242     11.09583        -0.185755      0.423175     -2.000839
Ti      13.43918     13.39687     11.10081        -1.192136     -0.266886     -1.971822
Ti       1.82417      5.69620      2.25350         0.875906     -0.091204      0.051660
Ti       1.95170      5.79677     15.39167        -0.754019      0.388888      0.018468
Ti      13.33425      5.78320      2.28071        -0.671464      0.981153      1.574039
Ti      13.42518      5.77229     15.40401         0.026807      0.140636     -1.081243
Ti       1.87263      5.73912      6.70904         0.332976      0.713422     -1.007007
Ti      13.44007      5.67316      6.84042         0.361005      0.304682     -0.534743
Ti       1.95652      5.72300     11.06531         0.128309     -0.055815     -1.964327
Ti      13.47547      5.66298     11.02568        -1.632174      1.010703     -2.283312
Ti       1.85506      9.50675      2.48597         0.469595      0.206631     -1.958928
Ti       1.89491      9.58330     15.32837        -0.315915      1.130958      0.383911
Ti      13.32839      9.67205      2.36356         1.051710     -1.477029     -1.286033
Ti      13.38350      9.53213     15.47220         0.897823      0.899780     -0.837383
Ti       1.92635      9.50667      6.67771        -0.277269     -0.281018     -0.520361
Ti      13.41498      9.57314      6.80754         0.352153     -0.396605     -1.357744
Ti       1.96668      9.57731     11.00455        -0.632737     -0.030907     -1.390870
Ti      13.42122      9.58985     10.90591         0.166632     -0.028596     -1.270861
Ti       5.73365      1.92572      2.25001         0.478566      0.358762     -1.023686
Ti       5.79295      1.89706     15.52253        -0.270881     -0.482766      0.319518
Ti       5.64264     13.39127      2.37626         0.846940     -0.984828     -0.276255
Ti       5.76852     13.38532     15.51933        -1.118478     -0.185493     -0.850755
Ti       5.68640      1.84691      6.68717         0.446872      0.152647     -0.517712
Ti       5.68383     13.35107      6.69712         0.771593     -0.067563     -0.201335
Ti       5.64076      1.83950     11.10906         0.481742      0.135461     -0.854190
Ti       5.69573     13.41973     11.08568        -0.481203      0.129108     -0.023841
Ti       5.72480      5.74080      2.21325        -1.012312     -0.102338     -0.200371
Ti       5.72208      5.71524     15.47958        -0.153546      1.078862     -1.189265
Ti       5.72781      5.76991      6.66186        -0.022351     -0.324861     -0.365917
Ti       5.72642      5.75421     11.10633         0.330540      0.796914     -1.574751
Ti       5.78668      9.55654      2.29733        -0.940706      0.288887     -0.612700
Ti       5.74039      9.56444     15.48872        -0.085248     -0.055127     -0.979356
Ti       5.75190      9.55461      6.72531         0.427105      0.492278     -1.232253
Ti       5.71777      9.60037     11.05038         1.160290     -0.659976     -0.488025
Ti       9.57782      1.96493      2.36095        -0.480046     -0.152319     -0.345890
Ti       9.53571      1.94806     15.33663         0.330669     -0.418640     -1.223511
Ti       9.55633     13.42858      2.38690        -0.161023      0.295825     -1.353411
Ti       9.61997     13.41748     15.48642         0.763231      0.486055     -1.166970
Ti       9.57264      1.93985      6.67297        -0.231420      0.267543     -1.361481
Ti       9.52442     13.45431      6.69346        -1.070752     -0.448020     -0.472156
Ti       9.47761      1.80055     11.10463         0.288820      0.646298      0.245611
Ti       9.50640     13.40120     11.10870         0.321390     -0.059157      0.671737
Ti       9.50445      5.77098      2.39632         0.693972     -0.191584     -0.551114
Ti       9.58636      5.84265     15.30098         0.125305     -0.572519     -1.087399
Ti       9.59437      5.69655      6.80301        -1.145134      0.117016     -1.159415
Ti       9.56716      5.75417     10.98447        -0.256292     -0.616553      1.104447
Ti       9.55476      9.56287      2.37635         0.877330     -0.133703     -2.142095
Ti       9.58743      9.68355     15.37552        -0.508670     -1.277888      0.165089
Ti       9.59290      9.51471      6.77975        -1.351446      0.697473     -0.592063
Ti       9.58850      9.53859     11.11045        -0.874259      0.279975     -1.115348
O       1.73419      1.98338      0.56380         0.101955     -0.314411     -0.434953
O       1.93481      1.94759     13.58348        -0.391213      0.036587      2.175067
O       1.85137     13.43691      0.56837        -0.178741     -0.108488      1.588673
O       2.00218     13.47322     13.77656        -0.214243     -0.172868     -0.741121
O      13.35511      1.94774      0.53535         0.393363      0.170389      0.748313
O      13.52699      1.96993     13.46990        -0.254664      0.173679     -0.298548
O      13.22428     13.36725      0.64467         0.398069      0.365815      0.919348
O      13.29509     13.37933     13.64139         0.572025     -0.015263      0.586550
O       2.10017      1.92318      4.86016        -0.647681     -0.089755      1.201926
O       1.84782     13.39958      4.83741        -0.017018      0.080205     -0.360222
O      13.45107      1.75987      4.92203        -0.165055      0.375773      0.464667
O      13.45476     13.46438      4.86589        -0.424174     -0.158305      1.444706
O       1.83199      1.83939      9.32996         0.423886     -0.200423      0.676446
O       1.87119     13.42606      9.26501         0.223011     -0.058620      0.915574
O      13.49520      1.90033      9.22595        -0.409000     -0.343909      2.289472
O      13.40776     13.43506      9.26977        -0.038855     -0.228091      1.240551
O       1.85455      5.70420      0.46764        -0.140652      0.322027      0.950078
O       2.04143      5.91406     13.64922        -0.548909     -0.532013     -0.400552
O      13.25447      5.75163      0.61149         0.153803     -0.239380     -2.377161
O      13.41670      5.70751     13.54467        -0.001655      0.140553      1.614569
O       1.96560      5.89142      4.90845        -0.409877     -0.623911      0.400623
O      13.36719      5.82597      4.99884         0.214138     -0.341090      0.993034
O       1.96781      5.64098      9.25491         0.208300      0.548777      1.719594
O      13.44241      5.65256      9.19298        -0.387521     -0.065631      0.861412
O       2.01032      9.62956      0.58099        -0.749686     -0.545158      1.641364
O       1.87445      9.54246     13.56637         0.039514      0.095808     -0.678680
O      13.36297      9.73076      0.55239         0.024090     -0.068779      0.407246
O      13.49626      9.54568     13.65411        -0.247462     -0.067155      0.991970
O       1.99290      9.53007      4.86347        -0.306707     -0.195713      0.419764
O      13.50590      9.57127      4.98131        -0.484756     -0.092885      1.421619
O       2.01840      9.65871      9.16980        -0.349043     -0.051491      1.558543
O      13.47766      9.61378      9.06758        -0.512876      0.286797      1.887362
O       5.64227      1.93346      0.45207         0.758570     -0.106347      0.903946
O       5.84151      1.75660     13.78214        -0.178620      0.281303     -0.301246
O       5.77577     13.30342      0.63951         0.007563      0.182455     -0.174847
O       5.69665     13.48528     13.64118         0.140798     -0.373755      2.102521
O       5.78774      1.73501      4.92509        -0.634539      0.386031      0.152078
O       5.71607     13.28678      4.90380        -0.090912      0.533787      0.969240
O       5.60056      2.05291      9.33946         0.213320     -0.796903      0.220298
O       5.63321     13.46979      9.34201        -0.112118     -0.020923     -0.330193
O       5.63256      5.74596      0.42048         0.429480     -0.054169      0.532308
O       5.54929      5.82062     13.66903         0.770563     -0.280843      1.276243
O       5.59942      5.76706      4.88879         0.434674     -0.149659      0.484156
O       5.61700      5.71595      9.24610         0.397736     -0.081929      1.499740
O       5.67870      9.66732      0.49508         0.178828     -0.514522      0.996418
O       5.68179      9.63582     13.68974         0.050638     -0.290968      0.676034
O       5.81812      9.58601      4.86697        -0.193656     -0.368001      1.845480
O       5.82411      9.46373      9.28813        -0.337867      0.586543      0.175850
O       9.33358      1.97997      0.57416         1.035784      0.135313      0.489159
O       9.49473      1.94216     13.53621         0.042912     -0.006587      1.006853
O       9.47321     13.46597      0.53975         0.512798     -0.011150      1.499402
O       9.65400     13.45983     13.62027        -0.344821     -0.329904      1.689981
O       9.62299      2.03746      4.86202         0.247458     -0.490711      1.517001
O       9.52081     13.29744      4.92754         0.155386      0.601595      0.524238
O       9.50881      1.84295      9.33257        -0.129037     -0.153801      0.348773
O       9.39715     13.59531      9.39427         0.353102     -0.457347     -0.980435
O       9.55821      5.77280      0.58613         0.002309     -0.156908      1.145140
O       9.62678      5.93995     13.52179         0.023453     -0.637429      0.761114
O       9.50846      5.71482      5.03261         0.388482     -0.072227     -0.152986
O       9.52905      5.69003      9.23046         0.016732      0.204543     -0.031703
O       9.67980      9.55265      0.53815        -0.523349     -0.064839      2.050302
O       9.55108      9.55924     13.60679         0.224419      0.229749      0.201311
O       9.46019      9.55009      5.00095         0.486344     -0.096868      0.198860
O       9.46797      9.50089      9.23221         0.622303      0.557912      2.191711
O       3.85774      1.86856      2.53083        -0.332722      0.355070      0.606798
O       3.76775      1.83982     15.85890         0.387572      0.107364     -0.272546
O       3.79781     13.35055      2.77337        -0.650799      0.075312     -0.138629
O       3.86664     13.44108     16.01948         0.299228      0.001470     -0.884126
O      15.32105      1.91573      2.78820        -0.153587     -0.268483     -0.170656
O      15.23719      1.85075     15.76983         1.167868      0.918182     -0.045490
O      15.25696     13.44361      2.67181         0.741766      0.263795      0.314802
O      15.32864     13.37156     15.88887        -0.137258      0.316570     -0.165287
O       3.75174      1.88997      7.08077         0.808152      0.088164      0.263701
O       3.75742     13.31470      7.04523         0.691794      0.636712      0.193190
O       0.01007      1.91235      7.15964         0.668751     -0.702939     -0.712603
O      15.27717     13.36775      7.03487         0.568155      0.276903     -0.069082
O       3.82074      1.84609     11.62671        -0.197405     -0.384624     -0.483308
O       3.78868     13.50278     11.59739        -0.298492     -0.229719     -0.668228
O       0.01730      1.96546     11.53166        -0.467728     -0.210274     -0.359691
O      15.30531     13.23984     11.49499         0.636381      0.677744     -0.331068
O       3.82067      5.62807      2.70468        -0.532868      0.357041     -0.553751
O       3.76345      5.64596     15.79409         0.973956      1.106438      0.110878
O      15.21697      5.79335      2.69486         1.787557     -0.140665     -0.329162
O      15.31977      5.91248     15.74401        -0.264983     -0.813084      0.041426
O       3.79143      5.79887      7.03241         0.562534      0.092330      0.197009
O      15.34935      5.80764      7.17931        -0.559536     -0.355467     -0.647080
O       3.89970      5.81214     11.55988        -1.378497     -0.078251     -0.464356
O      15.23418      5.76704     11.33716         2.577234     -0.726389      0.681227
O       3.90504      9.62314      2.72035        -0.939134     -0.624482      0.134445
O       3.77853      9.56363     15.76185         0.649827      0.065941      0.214209
O      15.34048      9.45204      2.76142         0.636389      0.512052     -0.137438
O       0.01372      9.56739     15.78609        -0.627243      0.198769      0.411189
O       3.79550      9.53152      7.05760         0.568083     -0.097540     -0.017706
O      15.34543      9.46142      7.08879         0.453626      0.995210     -0.281016
O       3.84447      9.46455     11.38856        -0.953335      0.526749      0.008341
O      15.29865      9.73264     11.38677         0.402759     -0.350946     -0.249327
O       7.67564      1.94451      2.84415        -0.579830     -0.392184     -0.651467
O       7.68553      1.92300     15.89640        -0.698735      0.075313     -0.411965
O       7.59939     13.40780      2.82012         0.841216      0.102460     -0.581177
O       7.73590     13.36742     15.84941        -0.750233      0.512417     -0.337751
O       7.61442      1.99478      7.01817         0.231636     -0.606476      0.422833
O       7.63336     13.38124      7.21428        -0.281027      0.600987     -0.469843
O       7.62875      1.87849     11.47772         0.054509     -0.082068     -0.182525
O       7.52877     13.28480     11.55870         1.665365      0.914247     -0.269933
O       7.57339      5.74428      2.77500         1.154875     -0.021423     -0.555780
O       7.73050      5.77950     15.76157        -1.932412     -0.220651     -0.089244
O       7.62805      5.74803      7.07191         0.121313     -0.314423      0.251282
O       7.60066      5.77410     11.53061         0.523601     -0.466854     -0.488513
O       7.69739      9.56109      2.73355        -0.162489     -0.018487     -0.298395
O       7.67695      9.55447     15.83469         0.404079      0.064868     -0.112054
O       7.66961      9.57424      7.19633        -0.247295     -0.097816     -0.189050
O       7.59412      9.62147     11.56981         1.441368      0.026625     -0.350583
O      11.55144      1.97632      2.67471        -0.624202      0.233871      0.262158
O      11.46704      1.96440     15.62967         0.078905      0.328752      0.263352
O      11.44852     13.41150      2.90220        -0.088061     -0.253437     -0.439377
O      11.52495     13.48445     15.85129        -0.233287     -0.065292     -0.015153
O      11.54661      1.85146      7.18918        -0.989246      0.556142     -0.607374
O      11.42815     13.44509      7.13458         0.434783     -0.260195     -0.129023
O      11.47308      1.76451     11.44984         0.204366      0.480398     -0.207442
O      11.40479     13.43996     11.48957         0.892483     -0.038074     -0.274796
O      11.47931      5.79307      2.83259        -0.702559     -0.257232     -0.026948
O      11.44904      5.86855     15.72667         1.001377     -1.037716      0.104202
O      11.45006      5.61488      7.12914         1.458072      0.286593      0.091230
O      11.50290      5.83327     11.43765        -0.360795     -0.382748     -0.395599
O      11.53164      9.58227      2.81153        -1.614837      0.269233      0.179303
O      11.43651      9.59790     15.81603         0.729574     -0.236406     -0.356477
O      11.42863      9.49175      7.15682         1.212415      0.886769     -0.057910
O      11.55870      9.61852     11.50309        -1.216442     -0.428839     -0.802054
O       1.79601      3.80285      2.79089         0.308798      0.690728     -0.373198
O       1.96284      3.87717     15.90477        -1.356896     -0.778951     -1.036741
O       1.92610      0.02734      2.73985        -0.304772     -1.009497     -0.138379
O       1.84495      0.00761     15.90926         0.213627      0.476501     -0.321057
O      13.49089      3.92793      2.81176        -0.709049     -1.135686     -0.397888
O      13.41741      3.82638     15.90252        -0.373777      0.822508     -1.090669
O      13.27560      0.02353      2.70464         0.676515     -0.279727      0.022739
O      13.43676      0.05217     15.76050        -0.286995     -0.410290     -0.212391
O       1.88524      3.91462      7.10868         0.164562     -1.692799     -0.612861
O       1.90528     15.30821      7.02722         0.101140     -0.063926     -0.040528
O      13.58556      3.72595      7.13653        -1.047670      1.255346     -0.415270
O      13.37588      0.02955      7.14613         0.411536     -2.230527     -0.174977
O       2.06036      3.83217     11.39374        -0.707965      0.132867      0.411064
O       1.85144     15.29783     11.55638        -0.249743     -0.094833     -0.669682
O      13.35350      3.79583     11.37156        -0.052642     -0.459099      0.295022
O      13.45463     15.27577     11.53166         0.131236      0.615416     -0.325321
O       1.99900      7.58645      2.69829        -0.390574     -0.042130     -0.333922
O       1.90513      7.76410     15.79090         0.350630     -1.654830      0.331115
O      13.40681      7.77975      2.71931        -0.377483     -1.595057      0.255356
O      13.38786      7.69363     15.93705         0.007821     -0.525337     -0.535572
O       1.87625      7.61670      7.22335         0.279267      0.900237     -0.537229
O      13.43400      7.63714      7.26193        -0.840371     -0.344420     -0.822591
O       1.76880      7.62270     11.35245         0.519519      0.896212     -0.004537
O      13.49963      7.70048     11.29837        -0.447832      0.304848      0.190018
O       1.80975     11.45937      2.69842         0.099240      0.478879      0.144676
O       1.94998     11.50236     15.91239        -0.469194      0.104362     -0.549607
O      13.50010     11.44651      2.86042        -0.482087      1.642262     -0.144388
O      13.39874     11.50427     15.83365         0.015563      0.025136     -0.135376
O       2.01075     11.49793      6.97059        -1.071469     -0.914223      0.343111
O      13.44207     11.50950      7.16339        -0.733957     -0.072605     -0.391830
O       2.00603     11.46452     11.44826        -0.189309      0.413514     -0.352641
O      13.24363     11.49438     11.45420         0.642463      0.108285     -0.093754
O       5.75947      3.82011      2.62741        -0.014616     -0.414590      0.209632
O       5.63275      3.82872     15.81680         0.763974     -0.339066     -0.406292
O       5.70278     15.32780      2.62255         0.271640      0.134561      0.195600
O       5.76243     15.29298     15.97927         0.406507      0.049956     -0.554763
O       5.67633      3.83795      7.08564         0.336781     -0.267454     -0.616925
O       5.61520     15.30747      7.12508         0.280992      0.056180     -0.019409
O       5.68837      3.70913     11.61375         0.074806      1.201070     -0.481762
O       5.80269     15.33355     11.53404        -0.269639     -0.169660     -0.181121
O       5.78199      7.58336      2.66566        -0.339417      1.011875     -0.181696
O       5.75111      7.67243     15.95236        -0.289043     -0.660049     -0.485039
O       5.82597      7.67906      7.08148        -0.555375     -0.316911     -0.058541
O       5.81403      7.67469     11.41062        -0.348039     -0.373752      0.223946
O       5.71932     11.38483      2.91263         0.432876      1.118162     -1.101361
O       5.81791     11.44161     15.90564        -0.393369      1.340103     -0.554568
O       5.71394     11.45033      7.18405        -0.033562      0.299690     -0.131689
O       5.76959     11.52990     11.50742        -1.147773     -0.576582     -0.247792
O       9.57094      3.81889      2.78359         0.083814      1.181812     -0.174824
O       9.42266      3.90048     15.83491         1.259440     -0.647349     -0.701273
O       9.61630      0.02645      2.74328        -0.286395     -0.541610     -0.129653
O       9.58807      0.06980     15.77420        -0.223915     -0.725506      0.065808
O       9.56964      3.77700      7.17061         0.113881     -0.121466      0.062274
O       9.53139      0.04546      7.14616         0.001888     -0.446882     -0.448502
O       9.49371      3.87355     11.44918         0.492122     -0.525575     -0.205618
O       9.55123     15.22223     11.64981        -0.657280      1.533562     -0.741003
O       9.54665      7.64450      2.87191         0.116669      0.194541     -0.475031
O       9.53274      7.62718     15.81597         0.185409      1.339774     -0.084813
O       9.63897      7.65234      7.22476        -0.553576     -0.756653     -0.585749
O       9.56694      7.67194     11.51811        -0.007605      0.520580     -0.802407
O       9.58028     11.49639      2.82420         0.106332     -0.066378     -0.652896
O       9.60298     11.53178     15.85491         0.083552      0.120712     -0.592450
O       9.50823     11.55523      7.18484         0.761563     -0.384732      0.137622
O       9.55075     11.50891     11.50582         0.027489     -0.851177     -0.473560
