  # total energy = -7880.42849217 
CRSYTAL
PRIMVEC
    15.6000000000000000    0.0000000000000000    0.0000000000000000
     0.0000000000000000   15.6000000000000000    0.0000000000000000
     0.0000000000000000    0.0000000000000000    17.640000000000000
PRESSURE
-2.70763 -2.30795 3.85705 -0.123586 0.337966 0.018602
PRIMCOORD
320 1
Pb       3.94262      3.87082      4.33015        -0.494938     -0.191112      0.307114
Pb       3.97511      3.94909     17.55379        -0.081212     -0.178374      0.082087
Pb       3.75656     15.46002      4.33491         0.791039      0.787257      0.397863
Pb       3.82279      0.00338      0.01635         0.199749      0.345477      0.340774
Pb      15.52176      3.84167      4.31207         0.203114      0.015301      0.479582
Pb       0.05766      3.90485     17.54500        -0.310525     -0.061741     -0.320469
Pb      15.59868     15.56322      4.32403         0.164059      0.117652      0.450671
Pb      15.46916     15.57221     17.62875         0.656562      0.182872     -0.186213
Pb       3.84046      3.97865      8.72161         0.138510     -0.547970      0.904767
Pb       3.88450     15.58593      8.75226         0.289557      0.322443      0.093228
Pb      15.56954      3.95102      8.80831         0.630456     -0.274974      0.209615
Pb      15.50340      0.04348      8.65963         0.310842      0.297796      0.569117
Pb       3.93646      3.84567     13.21027        -0.443992      0.312279      0.254243
Pb       3.94341      0.03898     13.14711        -0.217339     -0.375923     -0.132074
Pb       0.03749      3.97220     13.13480         0.130881     -0.955817      1.085168
Pb      15.50166     15.53007     13.19111         0.341954      0.620030      0.179928
Pb       3.96215      7.74866      4.35714        -0.040584      0.230485     -0.270795
Pb       3.98941      7.71923     17.51134        -0.663369     -0.027501      0.939607
Pb       0.01327      7.62411      4.25823        -0.399264      1.108489      0.992623
Pb       0.06884      7.72751     17.48240        -0.583919      0.092879      0.286093
Pb       3.83308      7.74372      8.72821         0.232580      0.682458      0.847863
Pb      15.54469      7.81997      8.73385        -0.028667     -0.138763      0.467395
Pb       3.93035      7.75341     13.15678        -0.556707      0.201102      0.018385
Pb       0.04834      7.71727     13.12965         0.050847      0.777616      0.239555
Pb       3.89107     11.63281      4.29994         0.437722     -0.175797      0.212299
Pb       3.83227     11.68858     17.54128         0.070656     -0.285572      0.444151
Pb       0.04754     11.77919      4.30801        -0.222956     -0.657542      0.316851
Pb       0.01399     11.70535     17.48702         0.247767     -0.217294      0.276060
Pb       3.83426     11.79846      8.85076         0.196406     -0.749107     -0.079473
Pb      15.57138     11.70307      8.70267         0.235523     -0.135827      0.845562
Pb       3.87835     11.70864     13.14575        -0.081445     -0.169552      0.248983
Pb      15.50446     11.80339     13.15500         0.922310     -0.822811      0.208662
Pb       7.72233      3.75030      4.30483         0.537902      0.153737      0.602867
Pb       7.80660      3.93747     17.61955        -0.254588     -0.593184      0.379070
Pb       7.65698     15.52060      4.37913         0.240313      0.259260      0.360725
Pb       7.71615      0.01760     17.53017         0.400345     -0.121776      0.686493
Pb       7.66013      3.92614      8.79543         0.593421      0.017713      0.313611
Pb       7.73031      0.06271      8.77245        -0.021797      0.256471     -0.204143
Pb       7.76564      3.89522     13.27160         0.047478     -0.115512     -0.597832
Pb       7.81533      0.08033     13.08063        -0.159434      0.161613      0.268832
Pb       7.79718      7.66349      4.31936         0.297310      0.007842      0.582164
Pb       7.77098      7.72328     17.50918         0.220977      0.532860      0.879360
Pb       7.72451      7.81405      8.77143         0.402659     -0.130385      0.410519
Pb       7.83405      7.73952     13.19228        -0.405880      0.152935     -0.371160
Pb       7.73920     11.53234      4.27942         0.193505      0.816385      0.749757
Pb       7.80064     11.63503     17.40677        -0.309505     -0.180726      1.195172
Pb       7.76562     11.73259      8.60707         0.211765     -0.545827      0.959693
Pb       7.72930     11.76517     13.06730         0.148050     -0.557260      1.164523
Pb      11.75919      3.79528      4.23780        -0.075337      0.349021      0.804297
Pb      11.61613      3.81700     17.60989         0.160923      0.017313      0.133733
Pb      11.67266     15.53889      4.27892         0.296481     -0.030987      1.051264
Pb      11.69779     15.56351     17.61961        -0.444661     -0.058680     -0.271613
Pb      11.70097      3.89493      8.67278        -0.999498     -0.009378      1.557111
Pb      11.64615      0.01032      8.72563         0.231569      0.516247      0.309322
Pb      11.71494      3.87967     13.11059         0.037407      0.247941      0.410291
Pb      11.62476      0.04946     13.12732         0.515858     -0.366412      0.773497
Pb      11.63519      7.77948      4.35088        -0.049821     -0.080427      0.134632
Pb      11.66652      7.75000     17.58692         0.364158      0.617430      0.283417
Pb      11.69275      7.80656      8.73278        -0.178524     -0.544087      0.315908
Pb      11.65271      7.79900     13.07304         0.535677     -0.029136      1.162594
Pb      11.66975     11.49325      4.34731        -0.077124      0.893230      0.280350
Pb      11.58652     11.72343     17.57079         0.710226     -0.587686      0.629347
Pb      11.62327     11.78673      8.88233        -0.025176     -0.144107     -0.261006
Pb      11.65194     11.70662     13.23958         0.055169     -0.333647      0.646983
Ti       1.92878      2.03421      2.39799         1.188547     -0.692091      0.507828
Ti       2.01692      1.91454     15.65813        -0.820766      1.162370     -1.465950
Ti       2.02881     13.61345      2.42992        -0.576993      0.193627     -0.240503
Ti       1.96616     13.75311     15.62723        -0.890350     -0.847700     -0.163341
Ti      13.71920      1.87565      2.27602        -0.693162      0.611685      1.835852
Ti      13.65577      1.86929     15.67029        -0.069983      0.824134      2.003813
Ti      13.72047     13.61667      2.40823        -1.127079     -0.501633      0.933107
Ti      13.64124     13.55361     15.73694        -0.187753      0.511009      2.290053
Ti       2.02374      1.97120      6.76431        -0.524156      0.363297      1.738525
Ti       1.96291     13.64877      6.83414         0.527227      0.164554      0.555554
Ti      13.68505      2.04675      6.86889        -0.879830     -0.926441      0.782533
Ti      13.68492     13.58452      6.86910        -0.600485      0.706513     -0.851094
Ti       1.95899      1.87679     11.22660        -0.673534      0.760259      1.633185
Ti       1.93972     13.72458     11.26279         0.546042     -1.168524      1.744875
Ti      13.67798      1.90217     11.20766         0.995590     -0.279009      1.261183
Ti      13.64558     13.59390     11.29760        -0.091269      0.248601     -1.042113
Ti       1.84186      5.87188      2.34727         1.791702     -0.849710      0.304516
Ti       1.93663      5.81496     15.68418         0.297462     -0.144134      0.610920
Ti      13.58107      5.88371      2.39218        -0.134937     -0.023627     -0.750482
Ti      13.49953      5.78884     15.68216         1.647721     -0.139007      0.230776
Ti       1.95473      5.90084      6.83361        -0.382717     -1.364256      0.715793
Ti      13.60829      5.79737      6.84019        -0.133773      0.603943      0.305275
Ti       1.96458      5.72957     11.27592         0.515779      1.320227      0.392732
Ti      13.68394      5.75215     11.25506        -0.435217      1.885540      0.167005
Ti       1.90896      9.66764      2.40507         0.627620      0.581225      1.131062
Ti       1.97175      9.71746     15.62150         0.254268     -0.095534      1.046958
Ti      13.68828      9.73045      2.34855        -0.099116     -0.528441      0.502977
Ti      13.69781      9.66306     15.54125        -1.141388      0.068624      1.278437
Ti       1.92339      9.74930      6.79202         0.895600      0.225929      0.455176
Ti      13.65294      9.74680      6.75152        -0.309931     -0.693745      0.417527
Ti       1.93078      9.76623     11.21787         0.472790     -0.471453      0.872151
Ti      13.62271      9.76107     11.23560         1.020168     -0.700577      2.291881
Ti       5.83495      1.92206      2.36722        -0.240446     -0.428056      2.852035
Ti       5.81847      1.93140     15.55416         0.464671      0.729148      2.829933
Ti       5.89946     13.65202      2.39274         0.053046      0.025675      1.557184
Ti       5.75694     13.68110     15.58629         0.508990     -0.549308      0.562084
Ti       5.79895      2.00047      6.77157         0.635129     -0.859832      2.436998
Ti       5.87095     13.60741      6.83941        -0.277435      0.533413     -0.516190
Ti       5.77923      1.98324     11.16807         0.759637     -0.109785      0.234214
Ti       5.92316     13.64669     11.19216        -1.512627      0.140533      2.164731
Ti       5.76662      5.83103      2.41251         0.687013     -0.733700      1.382968
Ti       5.85871      5.86202     15.65751        -0.805898     -0.684325      1.566050
Ti       5.85216      5.84498      6.79295         0.447739     -0.033448      2.438158
Ti       5.83250      5.79930     11.25939         0.246116      0.284758      0.093781
Ti       5.87186      9.72823      2.34692        -0.601949      0.095177      0.116364
Ti       5.78362      9.74568     15.60882         0.500137     -0.082159      2.242197
Ti       5.86795      9.68235      6.81308        -0.577911      0.782088      0.980316
Ti       5.85329      9.73205     11.26604        -0.772998     -0.446948     -0.096114
Ti       9.80823      1.86040      2.41582        -1.001412      0.997279      0.392814
Ti       9.72436      1.93805     15.65305        -0.208574     -0.686637      1.032415
Ti       9.78238     13.67953      2.51268        -0.295338     -1.047463      0.136284
Ti       9.67015     13.59248     15.67241         0.835574      0.772634     -0.726774
Ti       9.69842      1.97973      6.85596         0.229452      0.260229      2.198641
Ti       9.77657     13.69420      6.84408        -0.214598      0.049290     -1.216081
Ti       9.82255      1.97593     11.23635        -1.587482      0.074997     -1.457288
Ti       9.81213     13.62852     11.31698        -0.290053     -0.061159      0.726451
Ti       9.70274      5.76134      2.47349        -0.026699      0.068632      0.505043
Ti       9.69733      5.81426     15.63301         0.119859     -0.150031      1.515011
Ti       9.70981      5.81147      6.83963        -0.289650      0.218196     -0.262061
Ti       9.76614      5.77655     11.22888        -0.953274      0.457644      0.229997
Ti       9.70362      9.70809      2.41082         0.458941     -0.171873      1.437789
Ti       9.75021      9.70259     15.59692         0.585481     -0.118380      1.761011
Ti       9.79358      9.72537      6.82585        -0.458325     -0.686619      0.340895
Ti       9.74198      9.76114     11.28424        -0.812928     -0.376814      1.438826
O       2.05318      1.88341      0.68833        -0.205732      0.124169     -0.746791
O       2.04014      1.88079     13.87103        -0.015954      0.022951      1.155014
O       1.99657     13.60053      0.71085        -0.075162      0.262928     -1.015121
O       1.85633     13.64175     13.90638         0.257860      0.552778     -0.410074
O      13.65816      1.83623      0.57970         0.076863     -0.096309     -0.712781
O      13.53077      1.77183     14.00308         0.013353      0.285812     -2.610109
O      13.76933     13.63809      0.69107        -0.017707      0.175721     -0.569495
O      13.69628     13.67090     14.09204        -0.170042     -0.093804     -3.435646
O       2.07671      2.10491      5.07418        -0.457593     -0.434796     -1.157011
O       1.95158     13.59101      5.11342         0.026491     -0.096475     -0.918721
O      13.60263      2.14094      5.18021         0.338363     -0.007231     -1.567722
O      13.62926     13.56986      5.14427         0.253362      0.292189     -0.143984
O       1.90888      1.95589      9.55743         0.020682     -0.181729     -2.058425
O       1.97245     13.68704      9.59341         0.090768     -0.202720     -2.332353
O      13.78000      1.91046      9.53583        -0.149439      0.009823     -1.411743
O      13.65701     13.50971      9.56677        -0.330917      0.163011     -0.983690
O       1.88802      5.90033      0.63205        -0.148373     -0.300166     -0.841159
O       1.99388      5.87899     14.00126        -0.202304     -0.236228     -2.324924
O      13.70915      5.99233      0.63453        -0.253541     -0.317126      0.698287
O      13.64696      5.74163     13.97039        -0.447858     -0.030736     -0.957501
O       1.98469      5.67270      5.14956        -0.089613      0.632743     -0.777441
O      13.64415      5.68164      5.12265         0.138307      0.230509     -0.697397
O       1.92270      5.87349      9.57349        -0.015353     -0.325380     -1.665354
O      13.62865      5.83281      9.55130         0.314930      0.046134     -0.684846
O       2.01137      9.69853      0.73422        -0.288019      0.187098     -1.849389
O       2.12511      9.63933     13.94835        -0.290962      0.093633     -0.768535
O      13.69417      9.49151      0.64800        -0.131720      0.686648      0.066214
O      13.59169      9.62746     13.82755         0.387009      0.350991     -0.278515
O       1.91335      9.65468      5.06302         0.083542      0.294488     -0.204364
O      13.67205      9.59730      5.04190        -0.167895      0.454049     -0.198102
O       2.00278      9.79096      9.48692        -0.343438      0.128874     -0.599172
O      13.73759      9.78748      9.56294        -0.238896      0.011659     -1.896180
O       5.81698      1.78691      0.70436        -0.152989      0.062749     -2.275442
O       5.88502      2.06350     13.88024        -0.087597     -0.348394     -1.727242
O       5.92252     13.82737      0.72377        -0.288759     -0.121815     -1.702962
O       5.74762     13.55843     13.89080         0.224816      0.340817     -0.555652
O       5.95100      1.90069      5.10639        -0.261173      0.421188     -1.814784
O       5.75368     13.59309      5.11510         0.238415      0.055203     -0.736874
O       5.74459      1.96420      9.43950         0.399441     -0.007868     -0.135747
O       5.91498     13.71957      9.51586         0.082093     -0.140423     -1.933417
O       5.85151      5.81877      0.72011         0.065347     -0.102777     -1.495615
O       5.80569      5.75137     14.00116         0.350110      0.146331     -3.263177
O       5.75364      5.78324      5.12649        -0.035051      0.146808     -2.280367
O       5.78749      5.77538      9.54468        -0.009680      0.255370     -0.815049
O       5.90682      9.80552      0.64243         0.118813     -0.497233     -0.446037
O       5.75880      9.71607     13.93754        -0.038487     -0.035546     -1.543435
O       5.77988      9.68993      5.10622         0.105539     -0.139253     -0.985824
O       5.90153      9.74337      9.53620        -0.088289     -0.104555     -0.594555
O       9.66916      1.91212      0.72494         0.497122     -0.182428     -1.335076
O       9.59547      1.88927     13.93884         0.459736      0.187120     -1.034809
O       9.81841     13.64446      0.80217        -0.199119     -0.134989     -1.364156
O       9.77653     13.52228     13.93302        -0.073640      0.326821      0.096092
O       9.63904      1.94128      5.19354         0.284726     -0.186556     -2.480246
O       9.84598     13.81202      5.08771        -0.204225     -0.377681      0.725295
O       9.77573      1.94967      9.48081        -0.163240     -0.062369      0.877108
O       9.86469     13.51869      9.62642         0.049707      0.189007     -1.500245
O       9.72589      5.69713      0.76258        -0.133935      0.200538     -1.110336
O       9.59921      5.79423     13.94208         0.214644      0.094876     -1.135022
O       9.63366      5.89859      5.10732         0.454967     -0.203224     -0.378813
O       9.78381      5.79083      9.53201        -0.002113      0.048837     -0.877360
O       9.79334      9.78497      0.73580        -0.186213      0.035587     -1.648376
O       9.66780      9.78418     13.92150         0.074901     -0.280296     -1.947953
O       9.72205      9.65510      5.10203         0.261728      0.203715     -0.473508
O       9.63170      9.83625      9.60901         0.431684     -0.120075     -1.122998
O       3.85617      1.86481      2.86146        -0.057950      0.535662     -0.140850
O       3.93727      2.00160     16.04370         0.520480     -0.547299      0.019601
O       3.88133     13.64066      2.78591         0.551244      0.024745      0.284958
O       3.84172     13.68778     16.02013         0.751209      0.019839      0.219407
O      15.59534      1.89284      2.74986        -0.336792      0.096328      0.207414
O       0.00208      1.89092     16.06390         0.342078      0.527365      0.033562
O       0.01150     13.65919      2.87199        -0.200131     -0.266110      0.056678
O       0.04505     13.68773     16.02892        -0.238304     -0.014555      0.688172
O       3.91906      2.00148      7.34070        -0.523284     -0.224986     -0.823101
O       3.98330     13.64765      7.34850        -0.799054     -0.033680     -0.142341
O      15.55365      2.06698      7.29797         0.756933     -0.699831     -0.380252
O       0.05163     13.70099      7.23758        -0.667135     -0.195219     -0.093416
O       3.86793      1.91053     11.60918         0.624767      0.058538      0.298191
O       3.98295     13.62508     11.60588        -0.752277      0.386609      0.214446
O       0.05464      1.95436     11.69101        -1.480165     -0.187139      0.175266
O      15.56748     13.60848     11.58462         0.250778     -0.151132      0.750761
O       3.88125      5.69941      2.84181        -0.444795      0.734605     -0.192326
O       3.92774      5.71727     16.01874         0.338511      0.979087      0.658514
O       0.04491      5.75168      2.92105        -1.311006      0.636323     -0.620444
O      15.58411      5.70238     15.98553        -0.032178      0.492267      0.563343
O       3.97504      5.84452      7.31860        -1.666736      0.337776     -0.475462
O       0.01352      5.81139      7.28795        -0.158640      0.261308     -0.203082
O       3.84654      5.79722     11.68181         0.763197     -0.298378      0.191686
O       0.05419      5.84052     11.79000        -0.961241     -0.539227     -0.687076
O       3.95818      9.64294      2.76814        -0.348344     -0.012506      0.531422
O       3.91091      9.67360     16.27290        -0.287567      0.523371     -1.051435
O       0.00148      9.66913      2.77035        -0.205902      0.301588      0.137209
O      15.58434      9.72343     16.04513         0.941542     -0.205924     -0.369007
O       3.84141      9.82144      7.19826         0.259995     -0.445205      0.106199
O      15.56258      9.79793      7.25278         0.377928     -0.394589     -0.161396
O       3.87340      9.72969     11.69342         0.565354     -0.042815     -0.091325
O       0.04337      9.82205     11.70654        -0.677485     -0.197709     -0.109062
O       7.79910      1.93353      2.74605         0.088328     -0.131304      0.402028
O       7.75872      1.90767     16.24295        -0.007184      0.425352     -1.159711
O       7.82081     13.58843      2.86628        -0.851493      0.380660      0.133635
O       7.76905     13.53046     16.03141         0.154245      0.452129     -0.367670
O       7.76909      2.06011      7.28104        -0.410475     -0.619957      0.190250
O       7.82366     13.69346      7.27675         0.132949     -0.080113     -0.157760
O       7.83055      1.98430     11.62594        -0.296218     -0.497464      0.064857
O       7.76274     13.66659     11.68653         0.896187      0.012753     -0.198674
O       7.77097      5.73174      2.98424        -0.061615     -0.144023     -0.786009
O       7.76346      5.78174     16.19236         1.008800      0.674922     -0.619710
O       7.76733      5.91440      7.22773        -0.137632     -0.245840      0.261819
O       7.77864      5.69962     11.55233        -0.036069      0.412716      0.732479
O       7.80112      9.68622      2.91709        -0.774512      0.063010     -0.626241
O       7.82103      9.71836     16.06160        -0.324958     -0.098839     -0.247652
O       7.85141      9.61419      7.28951        -0.542924      0.739825     -0.363973
O       7.70866      9.69887     11.76608         1.313259      0.294364     -0.056429
O      11.76743      1.90079      2.78858         0.269000     -0.265511     -0.245720
O      11.65298      1.92046     16.15365        -0.288571      0.124308     -0.255658
O      11.68409     13.59421      2.80207         1.120627      0.354701      0.355370
O      11.72108     13.64201     16.21925        -0.269319     -0.125509     -0.444186
O      11.68451      2.02285      7.30414        -0.115224     -0.385014     -0.231025
O      11.66093     13.64631      7.34963         0.664592     -0.309208     -0.076874
O      11.73032      1.89946     11.52296        -0.018014      0.092780      0.771193
O      11.75617     13.56208     11.83062        -0.741676      0.704269     -0.364636
O      11.67926      5.87706      2.89579         0.622466      0.007632     -0.393106
O      11.64593      5.80777     16.11281        -0.434219     -0.176511     -0.208721
O      11.65803      5.79024      7.30086         0.499209      0.409992     -0.413297
O      11.66431      5.94995     11.73858         0.635351     -1.242845     -0.401482
O      11.63993      9.72049      2.89037         0.404970     -0.283841     -0.415627
O      11.66432      9.74074     16.00370         0.571384     -0.395825      0.145833
O      11.72105      9.64701      7.34369         0.132010      1.076761     -0.617883
O      11.70010      9.69844     11.79074        -0.658930      0.318283     -1.179946
O       1.86148      3.90499      2.73727         0.239633     -0.212381      0.059355
O       2.12859      3.92617     16.04810        -1.156305     -1.397550      0.486247
O       1.92176     15.54922      2.90533        -0.258050      0.088537     -0.229546
O       1.97038      0.10547     16.11972         0.188306     -1.540503      0.005759
O      13.65759      3.94780      2.70463         0.004701     -0.823409     -0.009956
O      13.59477      3.84081     16.15290        -0.035000      0.324952     -0.061082
O      13.70302      0.00138      2.96772        -0.122547     -0.367643     -1.054347
O      13.65082     15.59609     16.10439        -0.113705     -0.714512      0.493111
O       1.91588      3.82438      7.29316         0.320987      1.080223      0.018104
O       1.99862     15.59011      7.23093        -0.144697      0.347660     -0.179722
O      13.59649      3.94645      7.42672         0.749036     -0.043397     -0.652148
O      13.54084      0.08757      7.22017         0.711782     -0.905509      0.176818
O       1.90356      3.85327     11.72238         0.381454      0.036803     -0.125683
O       1.89172     15.57856     11.64445         0.350155     -0.200801      0.345340
O      13.56439      3.88173     11.59092         0.373511     -0.382119      0.422209
O      13.68525     15.51377     11.61879        -0.362610      0.950694      0.356779
O       1.92175      7.75090      2.76809         0.147403     -0.287719      0.456681
O       2.10212      7.70530     16.05340        -0.788808      1.157359      0.209809
O      13.58668      7.81619      2.88434         0.536373     -0.752372     -0.003810
O      13.65514      7.79170     16.05314        -0.168337     -0.623473     -0.243985
O       1.89729      7.80086      7.23932         0.213174      0.089302     -0.199292
O      13.57496      7.75905      7.23803         0.644366      0.065330      0.084520
O       2.01072      7.76087     11.56935        -0.564997      0.317219      0.640319
O      13.75896      7.75888     11.63702        -0.496976      0.148859      0.037899
O       1.99769     11.68026      2.84948        -0.416010     -0.318760      0.057952
O       1.93041     11.70255     15.97127         0.298878     -0.214220      0.416141
O      13.63483     11.67971      2.85988         0.351056     -0.002906     -0.415554
O      13.68860     11.63167     16.12584        -0.107679      0.256869     -0.404531
O       2.02266     11.77056      7.33490        -0.675531     -0.423846     -0.419559
O      13.73872     11.68943      7.13968        -0.585064     -0.043430      0.342133
O       1.99546     11.67609     11.78884        -0.443763      0.619005     -0.555100
O      13.56368     11.69282     11.67289         0.307986     -0.523741      0.418929
O       5.84125      3.82191      2.95502        -0.211758      0.127120     -0.903179
O       5.88060      3.98574     16.05220         0.168626     -2.083036      0.391352
O       5.76370      0.03029      2.95889         0.470760     -0.871679     -0.390013
O       5.88200     15.58884     15.96390        -0.319696     -0.084024     -0.217931
O       5.82529      3.95386      7.33720        -0.048903     -0.326919     -0.758632
O       5.83892      0.01864      7.13345         0.224770      0.181236      0.668174
O       5.83429      3.86144     11.69679        -0.260460     -0.192332     -0.019359
O       5.83653      0.05153     11.67523         0.224887     -0.213454     -0.144235
O       5.85742      7.67724      2.82522        -0.124397      0.875638      0.056553
O       5.84136      7.77109     16.07769         0.281970      0.505762     -0.191410
O       5.80439      7.81733      7.27835        -0.070410     -0.255442     -0.122159
O       5.88489      7.72286     11.71509        -0.172720      0.084535     -0.059858
O       5.75168     11.69402      2.65981         0.500516     -0.303993      0.622010
O       5.79450     11.63269     16.10027        -0.103732      0.894977     -0.351501
O       5.91260     11.68211      7.15827         0.009708     -0.326449      0.391483
O       5.82580     11.64077     11.72298         0.194440      0.727145     -0.678394
O       9.93696      3.84582      2.76127        -0.896253     -0.442322      0.423099
O       9.66988      3.86646     16.05560         0.328541      0.142757      0.097792
O       9.75445     15.58983      2.89305        -0.012357      0.054196     -0.082731
O       9.80517     15.58498     16.00086        -0.491889     -0.649372      0.335845
O       9.71701      3.90478      7.27509        -0.124930      0.228792     -0.083515
O       9.71250     15.58898      7.35237         0.136636      0.080244     -0.114272
O       9.68013      3.86561     11.73486         1.168702     -0.158581     -0.027377
O       9.78766     15.53931     11.66334        -0.204349      0.711744      0.021842
O       9.63328      7.71125      2.75670         0.397896      0.708824      0.351592
O       9.78363      7.73679     16.17796        -0.637264     -0.064542     -0.814737
O       9.78336      7.77343      7.23683         0.118389      0.070345      0.524013
O       9.63113      7.74096     11.65762         0.370683      0.695753      0.083193
O       9.69973     11.67146      3.02104         0.214516     -0.287569     -0.549308
O       9.89091     11.63385     16.06734        -1.143171      0.782518     -0.140392
O       9.76505     11.65635      7.24204         0.041015      0.426085     -0.062715
O       9.76957     11.74348     11.69571        -0.124293     -1.174379      0.223935
