  # total energy = -7882.27514278 
CRSYTAL
PRIMVEC
    15.3600000000000000    0.0000000000000000    0.0000000000000000
     0.0000000000000000   15.3600000000000000    0.0000000000000000
     0.0000000000000000    0.0000000000000000    17.440000000000000
PRESSURE
1.00469 0.522593 -0.012577 0.077151 0.486663 -0.003108
PRIMCOORD
320 1
Pb       3.73528      3.84213      4.28381         0.649021     -0.016530      0.461298
Pb       3.80897      3.84214     17.36133         0.293931     -0.278186     -0.679934
Pb       3.81303      0.02703      4.24947         0.415844     -0.355630      0.031397
Pb       3.77212      0.06409      0.04904         0.439344      0.062624     -0.740090
Pb      15.31636      3.78498      4.36401         0.040222      0.468636     -0.628160
Pb      15.34477      3.90218     17.40077         0.145838      0.215293     -0.146048
Pb      15.27672     15.26947      4.29804         0.000001      0.515549     -0.307379
Pb      15.27524     15.29322      0.02384        -0.138636     -0.282485     -0.224531
Pb       3.79969      3.76193      8.75476         0.135023     -0.126249     -0.549903
Pb       3.86198     15.31990      8.71954        -0.092428      0.048927     -0.476918
Pb       0.01371      3.72928      8.69865         0.175246      0.550170     -0.545101
Pb      15.34864      0.03760      8.65701         0.117081     -0.171493     -0.101470
Pb       3.65256      3.84628     13.02847         1.092746     -0.874221      1.112181
Pb       3.77237     15.24503     13.10315         0.437538      0.597183      0.253559
Pb      15.30847      3.80691     13.03941         0.235895      0.500539      0.152422
Pb       0.03785      0.03096     13.01513        -0.181350     -0.688967     -0.146831
Pb       3.82309      7.62640      4.27860         0.031433      0.261030      0.082229
Pb       3.76625      7.66094     17.37633         0.047989      0.123190      0.301118
Pb      15.34071      7.66639      4.39132         0.085938     -0.185891     -0.945904
Pb      15.21446      7.71242     17.33555         0.461613      0.105425      0.062003
Pb       3.93989      7.60202      8.77297        -0.911324      0.343155     -0.104793
Pb       0.05766      7.61911      8.73536         0.049476     -0.302809     -0.718656
Pb       3.76865      7.67200     13.01169         0.591593      0.091092     -0.207924
Pb       0.04980      7.64966     13.01896        -0.423654     -0.027779     -0.124297
Pb       3.75705     11.51436      4.23860         0.139350      0.194152      0.130014
Pb       3.91734     11.48730     17.43489        -0.440859      0.103201     -0.270612
Pb      15.29234     11.55911      4.32235         0.669105     -0.672572     -0.556665
Pb      15.31863     11.53285     17.37200         0.639831     -0.398928      0.145286
Pb       3.76342     11.54512      8.63900         0.399458     -0.117684      0.036245
Pb      15.29791     11.39711      8.65119         0.378443      0.366294     -0.462394
Pb       3.79449     11.54443     13.11732         0.773077     -0.236500     -0.181756
Pb      15.30889     11.50242     13.15136         0.130567      0.216323     -0.259627
Pb       7.68915      3.77390      4.42849        -0.332097      0.503590     -0.642815
Pb       7.63629      3.90646     17.32735         0.338831     -0.461551     -0.358076
Pb       7.72066      0.09728      4.24374        -0.996176     -0.446162      0.487413
Pb       7.71712      0.01671     17.41104        -0.284316      0.348366     -0.371630
Pb       7.72687      3.66688      8.76690        -0.737392      0.681783      0.139015
Pb       7.62442     15.20317      8.63531         0.172846      0.259522     -0.033231
Pb       7.66917      3.80446     13.19699        -0.253073     -0.534887     -0.405620
Pb       7.57299     15.34132     13.13719         0.357625     -0.017714     -0.294396
Pb       7.61203      7.64003      4.31161         0.411668     -0.220888     -0.145724
Pb       7.74717      7.63461     17.40976         0.006475      0.501329     -0.411877
Pb       7.55081      7.69657      8.67822         0.607847     -0.107075     -0.186568
Pb       7.53280      7.62479     12.99730         0.245788      0.180771     -0.403579
Pb       7.67369     11.52610      4.34249        -0.134714      0.117861     -0.470162
Pb       7.76050     11.50479      0.07779        -0.201743     -0.683339     -0.571471
Pb       7.52281     11.44162      8.66149         0.679229      0.087414     -0.210982
Pb       7.62465     11.39697     13.10481         0.147156      0.217762     -0.362672
Pb      11.44414      3.81738      4.38181         0.253020      0.206034     -0.392198
Pb      11.59251      3.82863     17.35676        -0.685656      0.211171     -0.280397
Pb      11.38054      0.00320      4.28239         0.490778      0.139371     -0.127753
Pb      11.58761     15.34126     17.37682         0.002667     -0.244427      0.070234
Pb      11.45756      3.82206      8.73193         0.140498     -0.002065     -0.072666
Pb      11.50358     15.22649      8.64921        -0.047643      0.330097     -0.323523
Pb      11.54229      3.82366     13.09158        -0.438857      0.022787     -0.175437
Pb      11.57680     15.33759     12.93757        -0.144045     -0.072671      0.157552
Pb      11.42028      7.79295      4.30972         0.345677     -1.114516      0.085128
Pb      11.57385      7.58814     17.41026        -0.352537      0.349478     -0.637521
Pb      11.41726      7.60652      8.72996        -0.259148     -0.102820     -0.327666
Pb      11.53589      7.72709     12.89482        -0.568503     -0.163696      0.455904
Pb      11.50930     11.47469      4.43772        -0.102900      0.201632     -0.941471
Pb      11.54616     11.50694      0.00612        -0.181130     -0.274050     -0.270379
Pb      11.52839     11.53092      8.71772        -0.477631     -0.071142     -0.812099
Pb      11.46461     11.44844     12.99537        -0.687092      0.297737     -0.097924
Ti       1.92840      1.93701      2.22885        -0.237955      0.398240      0.698091
Ti       1.83082      1.90085     15.44294         1.417181      0.697890      0.612168
Ti       1.90402     13.49509      2.31599         0.457656     -0.874235     -1.408744
Ti       1.98309     13.44584     15.39411        -0.157547      0.000954      0.758060
Ti      13.49620      1.87703      2.28871        -1.009406     -0.038672      0.774314
Ti      13.43129      1.92124     15.36126         0.020192     -0.722889      0.140147
Ti      13.40895     13.37170      2.34614         0.009805      0.574631     -1.191837
Ti      13.46820     13.36965     15.35777         0.027086      0.717156      0.577795
Ti       1.86366      1.85173      6.61916         0.776785      0.829673      0.630027
Ti       1.90922     13.40520      6.66326         1.256701     -0.140667     -0.503864
Ti      13.39198      1.96570      6.62795         0.007713     -0.522275      0.408372
Ti      13.51612     13.46479      6.59479        -0.968196      0.171294     -0.123375
Ti       1.85086      1.91574     11.03496         1.959812     -0.171963     -0.701507
Ti       2.02126     13.45658     11.01962        -1.723414      0.625150      0.731138
Ti      13.46096      1.95754     10.98522        -0.537968     -0.829217     -0.222534
Ti      13.47790     13.36874     11.01334         0.525744      1.866166      1.675169
Ti       1.93210      5.74894      2.31634        -1.460375      0.193320      0.642211
Ti       1.89780      5.78457     15.38590        -0.203144     -0.281575     -0.082344
Ti      13.35529      5.74216      2.31052         1.596873      0.042734      0.546677
Ti      13.43233      5.69033     15.28022        -0.408466      1.533873     -0.075654
Ti       1.98300      5.70768      6.57975        -1.640453     -0.086811      1.349542
Ti      13.46600      5.73182      6.72208        -0.164887      0.683149     -1.041384
Ti       1.95335      5.72819     11.04044        -0.490283      0.059126     -0.636572
Ti      13.40829      5.76690     11.08423         0.178196     -0.015922      0.833675
Ti       1.97044      9.56038      2.29419        -0.657080     -0.255439      0.943573
Ti       1.97652      9.57870     15.33758        -0.533055      0.572058      3.497349
Ti      13.44120      9.51264      2.30591         0.667326      0.578937      1.335442
Ti      13.43034      9.62511     15.31097         0.093902     -1.564811      1.094551
Ti       1.91460      9.52926      6.65658        -0.053463      0.623230      0.091813
Ti      13.40208      9.55436      6.64329         0.589739     -0.227144     -0.016241
Ti       1.86224      9.73681     11.05148         0.968129     -1.131342      0.023152
Ti      13.39676      9.62401     10.96469         0.362223     -0.012443      1.350404
Ti       5.70515      1.99379      2.28093         0.454153     -0.927260     -0.560793
Ti       5.77858      1.88292     15.36643        -1.335449      0.875808     -0.659509
Ti       5.75072     13.47073      2.24111        -0.764732      0.073934     -0.134843
Ti       5.82419     13.41466     15.52814        -1.133261      0.099345     -1.392224
Ti       5.70083      1.94555      6.64465         0.347882      0.126786      0.474019
Ti       5.77357     13.42517      6.55887        -0.183639      0.354606      0.671987
Ti       5.74131      1.84321     11.10039        -0.121616      1.179581      0.571516
Ti       5.84704     13.37992     11.09765        -0.730763     -0.273202      0.505539
Ti       5.76327      5.76771      2.27527         0.179397     -0.205622      1.682411
Ti       5.76135      5.75927     15.33015        -0.396467     -0.301029     -0.312167
Ti       5.62254      5.82730      6.74256         2.155053     -1.793309     -0.300894
Ti       5.71538      5.61520     11.07282         0.978314      0.498214      1.884063
Ti       5.76718      9.61762      2.33081         0.267776     -0.040741      0.894089
Ti       5.79565      9.56905     15.40119         0.162847     -0.368529     -0.244933
Ti       5.64576      9.65296      6.54038         0.736623     -0.080010      0.415155
Ti       5.69762      9.57596     10.97322         0.196172      0.332117      2.243151
Ti       9.55942      1.94817      2.28842         0.309489      0.936517     -1.473699
Ti       9.67796      1.83022     15.39254        -1.109193      1.033359     -0.436947
Ti       9.55930     13.48948      2.23304         0.411827     -0.840854     -0.591175
Ti       9.59876     13.33931     15.40516         0.398739      0.228312     -0.351522
Ti       9.55896      1.87692      6.75988         0.271305     -0.883383      0.146678
Ti       9.63035     13.34949      6.60252        -0.643050      0.643789      0.548476
Ti       9.66420      1.87803     11.07496        -1.551638      0.228246     -0.838384
Ti       9.57508     13.42693     11.01219        -0.527248     -0.858275      0.769821
Ti       9.64666      5.77786      2.28393        -0.681706      0.120221      0.116799
Ti       9.54016      5.81285     15.24817         1.110664     -0.587732     -0.294118
Ti       9.55657      5.68729      6.71958        -0.142846      1.715643     -1.233153
Ti       9.55997      5.72232     11.13459        -0.785605      0.346732      0.190529
Ti       9.60742      9.64525      2.35117         0.102982     -0.622773     -0.670253
Ti       9.64784      9.57333     15.33330        -0.469793     -0.407176      0.714700
Ti       9.63797      9.57631      6.51363        -1.270187      0.030267      1.174971
Ti       9.50717      9.57694     10.92704        -0.625504     -0.123860      0.910455
O       2.09091      1.98531      0.47676        -0.590025     -0.087611     -0.070306
O       1.84967      2.14392     13.73284        -0.395251     -0.755706     -1.179035
O       1.97229     13.57511      0.47046        -0.154588     -0.360910      1.737116
O       1.84781     13.58520     13.62741         0.211771     -0.505136     -0.159037
O      13.32176      1.71345      0.57564         0.008374      0.727914     -1.589223
O      13.48665      2.05900     13.60152        -0.132192     -0.592603      0.037438
O      13.60845     13.34489      0.54406        -0.501105      0.303155      0.071202
O      13.56268     13.50882     13.61734        -0.067003     -0.235068     -0.310643
O       1.84107      2.01291      4.89377         0.034498     -0.564165     -0.993474
O       2.08159     13.30891      4.87873        -0.962023      0.609061      0.359374
O      13.51111      1.93282      4.86295        -0.095563      0.004685     -0.182339
O      13.56056     13.50516      4.78307        -0.508836     -0.301671      0.667670
O       1.99613      1.84830      9.22726        -0.525538      0.301588      0.819922
O       1.97396     13.59156      9.27241         0.054180     -0.484066     -0.047475
O      13.48341      2.00533      9.20474        -0.130990     -0.142503      0.282039
O      13.43882     13.44677      9.29066        -0.164994     -0.330147     -1.210472
O       1.88390      5.78171      0.58374        -0.017593     -0.205044     -1.264462
O       1.88440      5.71745     13.59680        -0.052386      0.440710      0.607348
O      13.41229      5.84334      0.53291        -0.335540     -0.540748     -0.160400
O      13.51804      5.69115     13.51201        -0.302721      0.173645     -0.158695
O       1.87727      5.75490      4.84252         0.337732     -0.153484     -0.349629
O      13.30385      5.72104      4.95025         0.506742     -0.155954      0.399236
O       2.04070      5.66514      9.25050        -0.441122      0.201189      0.673107
O      13.47484      5.73781      9.35928        -0.204172      0.114267     -1.226062
O       1.99528      9.44932      0.57056         0.010551      0.204657     -0.407978
O       1.92787      9.54706     13.65150         0.000206      0.110195     -2.529647
O      13.57333      9.53950      0.60320        -0.395182     -0.036168     -1.713445
O      13.41047      9.48342     13.59732        -0.006705      0.726504     -1.396403
O       2.03563      9.63640      4.91209        -0.506890     -0.239279     -0.064787
O      13.41407      9.57450      4.86430        -0.097206      0.248484      0.120916
O       1.99787      9.72255      9.28990        -0.787146     -0.042589      0.367330
O      13.58640      9.80061      9.24376        -0.456176     -0.359486     -0.901880
O       5.64043      1.99847      0.48852         0.457948     -0.070590      0.858980
O       5.81755      2.14782     13.58510         0.074508     -1.389485      0.451625
O       5.63859     13.57576      0.45918         0.266149     -0.476232     -0.089693
O       5.91846     13.31953     13.69084        -0.360824      0.242128      0.920989
O       5.90919      1.82433      4.88202        -0.249066      0.466987      0.221853
O       5.78670     13.36152      4.82377        -0.114717      0.156745     -0.345714
O       5.60463      1.95309      9.31332         0.520161     -0.291019      0.622425
O       5.84641     13.55932      9.35933        -0.218259     -0.317160     -0.827770
O       5.78329      5.78331      0.56148         0.195072     -0.034817     -0.740152
O       5.74746      5.79360     13.55422         0.112676     -0.125536      0.147800
O       5.72167      5.72618      4.99880         0.133358      0.181531     -0.350451
O       5.52965      5.70128      9.37365         0.032251      0.018408     -1.837483
O       5.87062      9.47867      0.62845        -0.103992     -0.140663     -1.717794
O       5.68970      9.64553     13.64350         0.058492      0.012112     -0.188918
O       5.68809      9.65071      4.77655         0.197818      0.006772      0.392533
O       5.72893      9.73117      9.27177        -0.005422     -0.476980     -1.935910
O       9.34163      1.98657      0.46405         1.079071     -0.184251      1.177384
O       9.82682      1.82061     13.65108        -0.566078      0.032539     -0.580053
O       9.64429     13.46572      0.41890        -0.350315     -0.142112      1.238697
O       9.45769     13.23832     13.64520         0.470480      0.434788      0.507418
O       9.63840      1.87647      4.97630        -0.431194      0.065070     -0.173107
O       9.62767     13.37906      4.86010         0.160707      0.083425     -1.422863
O       9.61132      1.98136      9.22980         0.458736     -0.041381      0.839652
O       9.57598     13.28430      9.26392         0.321196      0.360583     -0.690078
O       9.61314      5.73484      0.50477         0.212371     -0.114657      0.168349
O       9.54413      5.97975     13.45632        -0.094462     -0.385092      0.870676
O       9.71668      5.81511      4.91257        -0.590846     -0.804846      1.276121
O       9.64078      5.79485      9.38677         0.387039     -0.113627     -2.070168
O       9.65684      9.58332      0.58845        -0.411150      0.268547     -0.240832
O       9.64377      9.65237     13.57974         0.267633     -0.317663     -0.213046
O       9.66885      9.65113      4.72133         0.154452      0.270204      0.309922
O       9.42506      9.59948      9.16456         0.497702      0.001910     -0.079786
O       3.86167      1.89006      2.71154        -0.217032      0.108417      0.167956
O       3.83774      1.94604     15.71822        -0.672032      0.559360      0.436200
O       3.84153     13.50418      2.72970        -0.401959     -0.006536     -0.159069
O       3.84451     13.28694     15.66332         0.520986      0.442730      0.333577
O       0.02178      1.90029      2.49846         1.151031      0.512352      0.488750
O      15.23693      1.84683     15.88879         0.971009      0.151369     -0.018932
O      15.32823     13.41276      2.74382         1.280784     -0.085525      0.134211
O       0.10189     13.31182     15.84911        -0.953928      0.651292     -0.324625
O       3.84436      1.95500      6.94377         0.064266     -0.305794      0.172026
O       3.79959     13.42766      7.05637         1.049815      0.306144      0.159892
O      15.35255      1.88975      7.04464        -0.248766      0.117086      0.312899
O       0.01928     13.50060      6.97058        -0.443535      0.048600      0.241741
O       3.80303      1.97158     11.50092         0.380941      0.112402     -0.195193
O       3.83482     13.42202     11.47945         0.457798     -0.209622      0.213956
O       0.00703      1.94448     11.35975        -0.206209     -0.169845      0.090568
O       0.03530     13.65372     11.40576         0.116011     -0.965786     -0.107297
O       3.78155      5.77308      2.68090         2.085769     -0.292007      0.179578
O       3.82435      5.72353     15.77244        -0.176836      0.235687     -0.138971
O      15.35225      5.72065      2.68534        -0.230294     -0.054707      0.450737
O      15.28392      5.67124     15.71702         0.813000      0.441126      0.409525
O       3.81081      5.77183      7.09197        -0.396790     -0.234339      0.190578
O       0.03647      5.76218      7.02360         0.045275      0.063446      0.414943
O       3.80454      5.56720     11.48058         0.018291      0.563957     -0.163304
O      15.29665      5.83440     11.44568         0.717137     -0.329385     -0.235630
O       3.88378      9.56265      2.68899        -0.458957     -0.189348      0.025295
O       3.91013      9.42996     15.77762        -0.399163      0.490058      0.220339
O       0.08549      9.54793      2.71712        -0.680997      0.277204      0.433473
O       0.00762      9.55010     15.80185         0.306712      0.369045     -0.389394
O       3.78425      9.60471      7.03529         1.048472      0.328280      0.265147
O      15.31220      9.64225      7.00701         0.829286      0.078103      0.398222
O       3.82802      9.74417     11.43092        -1.096405     -0.333955      0.223208
O      15.30138      9.58030     11.50958         1.252881      0.336887     -0.353839
O       7.70535      1.93550      2.79942        -0.177120      0.520742     -0.296420
O       7.61418      1.88935     15.68293         1.629973     -0.316334      0.434532
O       7.61787     13.44734      2.55265         1.324225     -0.287803      0.187141
O       7.68840     13.52303     15.87194         0.331043     -0.670643      0.217092
O       7.64411      1.91732      7.26990         0.751728     -0.259247     -0.845802
O       7.71643     13.35388      6.89489        -0.378478      0.354348      0.630053
O       7.77605      1.81391     11.52467        -0.716424      0.335067     -0.192183
O       7.64450     13.31304     11.41918         1.009179      0.937807      0.315145
O       7.77484      5.71481      2.76539        -1.188905      0.044800     -0.053929
O       7.70956      5.69359     15.66509        -0.352438      0.332969      0.335678
O       7.56627      5.82035      7.25006         1.516675     -0.092312     -0.464555
O       7.66247      5.89693     11.26589        -1.432014     -0.543978      0.639587
O       7.70580      9.69171      2.69651        -0.099910     -0.388858      0.458395
O       7.71093      9.56909     15.72456         0.381652      0.026568      0.432721
O       7.61245      9.62677      6.87212         0.269151      0.033506      0.143277
O       7.62977      9.56758     11.39559        -0.037104     -0.172282     -0.055074
O      11.58327      1.76239      2.72101        -1.557994      0.467125      0.045335
O      11.53798      1.83774     15.72355         0.304954      0.289938      0.922753
O      11.51905     13.47322      2.53762        -0.827092      0.629403      0.614477
O      11.56265     13.24321     15.75933        -0.142794      0.468350     -0.090675
O      11.51654      2.00318      7.02093        -0.047101     -0.055993      0.303747
O      11.52267     13.46468      6.94982         1.101621     -0.247787      0.583118
O      11.53516      1.93155     11.44874         0.418938     -0.241976     -0.137080
O      11.46448     13.48004     11.42064         1.167967     -0.609777     -0.060699
O      11.51561      5.83644      2.71883         0.154811     -0.488683     -0.027959
O      11.56950      5.80063     15.57470        -0.655639     -0.354639      0.648090
O      11.48159      5.92199      7.13645         0.097099     -0.949665      0.381248
O      11.43013      5.79051     11.46018         2.185275      0.046184      0.127903
O      11.53465      9.43311      2.63311         0.183731      1.123729      0.304063
O      11.52602      9.61512     15.81448         0.356493     -0.004434     -0.028267
O      11.54410      9.64594      7.04264        -0.349700     -0.129990      0.093746
O      11.48369      9.68299     11.30073         0.353005     -0.065015     -0.133189
O       2.04569      3.81503      2.80175        -0.999128     -0.406589     -0.801336
O       1.77901      3.87585     15.82069         0.384593      0.117492      0.420006
O       1.96799      0.03887      2.67538        -0.377922     -0.221908      0.166614
O       2.06066      0.04228     15.70325        -0.758499     -0.717166      0.269317
O      13.43762      3.82651      2.63788        -0.354010      0.067048      0.165016
O      13.34824      3.79379     15.80144         0.348262      0.057843      0.125848
O      13.59980     15.35605      2.58276        -0.257945     -0.803393      0.919847
O      13.39624     15.25617     15.84969         0.258452      0.284970     -0.258074
O       1.91044      3.82526      6.96192         0.031102     -0.049076      0.431670
O       1.98399      0.00439      7.10946        -0.421168     -0.274891     -0.347990
O      13.49979      3.85666      7.11115        -0.282639     -0.112529      0.034331
O      13.39765      0.05403      7.01285         0.149666     -0.787739      0.248002
O       1.86200      3.82325     11.50797        -0.445042     -0.205155     -0.647557
O       2.08208      0.04359     11.50723        -0.866708     -0.009883     -0.168590
O      13.39849      3.80558     11.45642         0.090748      0.644577     -0.273586
O      13.51093      0.02371     11.39770        -0.746313      0.351612      0.112625
O       2.00029      7.61388      2.81005        -0.497808      0.866651     -0.166695
O       1.97020      7.72018     15.85242        -0.603387     -1.467993     -0.488877
O      13.47987      7.67670      2.72370         0.154127     -0.727008      0.275714
O      13.45999      7.69734     15.66111        -0.032560     -0.699565      0.538991
O       1.98648      7.67937      7.09088        -0.566638     -0.285980      0.085362
O      13.58335      7.67077      7.07159        -0.597084      0.367940      0.404332
O       2.02463      7.60587     11.35025        -0.375918      1.145078      0.250722
O      13.45649      7.79079     11.35152        -0.515995     -1.123854     -0.081671
O       1.95852     11.53900      2.74250        -0.197195      0.080043     -0.570730
O       2.03362     11.46615     15.86403        -0.281654     -0.295736     -0.520137
O      13.35258     11.51029      2.57915         0.318600     -0.620852      1.050513
O      13.51069     11.45890     15.72238         0.058838      0.791259      0.207245
O       2.00037     11.52863      7.12484        -0.973588     -0.055008     -0.097666
O      13.47102     11.56872      7.02538        -0.136148      0.173112     -0.070137
O       1.88515     11.56100     11.60485        -0.465574      0.156523     -0.641881
O      13.54679     11.56133     11.53806        -0.336776     -0.431249     -0.401081
O       5.76025      3.82946      2.74245         0.079021      0.557393      0.022684
O       5.78855      3.82811     15.78583        -0.032340      0.760286      0.275757
O       5.78809      0.01645      2.62374         0.017401      0.447288      0.388512
O       5.66049      0.01037     15.77493         0.362911     -0.923895     -0.068705
O       5.84731      3.83317      7.16273        -0.645613     -0.230216     -0.321005
O       5.87049     15.30694      7.06666        -0.626212      0.320518     -0.091362
O       5.90675      3.77847     11.64106        -0.384230      0.362944     -1.390410
O       5.75537     15.34737     11.55232        -0.056070     -0.134035      0.022733
O       5.80493      7.63409      2.82451        -0.016378     -0.233499     -0.375548
O       5.92789      7.62300     15.64241        -0.470793     -0.067275      0.677264
O       5.68125      7.70251      7.10266        -0.053516      0.790479      0.046616
O       5.58480      7.66912     11.39914         0.042619     -0.169470     -0.082474
O       5.70052     11.52759      2.50198         0.203244      0.417958      0.361089
O       5.74218     11.44023     15.94819         0.591514      0.666722      0.000440
O       5.77155     11.55914      7.11225        -0.657909     -0.576257     -0.467172
O       5.82508     11.47882     11.41818        -0.610886      0.366957      0.178693
O       9.66682      3.83794      2.75896         0.193929     -0.631307     -0.013192
O       9.59393      3.87469     15.57818         0.445459     -0.322532      0.544982
O       9.46607      0.05517      2.67677         0.850742     -0.867275     -0.157055
O       9.66863     15.31182     15.69018        -0.181879     -0.353731      0.476923
O       9.62220      3.83624      7.05032        -0.286647      0.198833      0.174080
O       9.68399     15.33060      7.04267        -0.422338      0.239917      0.308527
O       9.57688      3.82768     11.53672         0.140084     -0.635369     -0.137416
O       9.56580     15.31227     11.35773         0.409529      0.145903      0.265026
O       9.64756      7.67279      2.66549        -0.740334      0.012172      0.247886
O       9.64984      7.63873     15.91295        -0.241864      0.293628     -0.562863
O       9.60671      7.74571      6.85682        -0.126092     -0.232969      0.848689
O       9.48862      7.66441     11.35923         1.024899      1.623184      0.121437
O       9.64666     11.56076      2.66412         0.073212      0.621214      0.134635
O       9.60321     11.41636     15.82427        -0.329570      1.053920      0.360952
O       9.64660     11.51772      6.95614         0.260530     -0.973799      0.147370
O       9.52977     11.49561     11.46517         0.503780     -0.282525     -0.215164
