  # total energy = -7881.51110034 
CRSYTAL
PRIMVEC
    15.3600000000000000    0.0000000000000000    0.0000000000000000
     0.0000000000000000   15.3600000000000000    0.0000000000000000
     0.0000000000000000    0.0000000000000000    17.440000000000000
PRESSURE
0.518722 0.414998 -2.75933 -0.074379 -0.343764 -0.061755
PRIMCOORD
320 1
Pb       3.93917      3.79414      4.38261        -0.189916      0.230289     -0.132072
Pb       3.88122      3.81349      0.03001        -0.111910     -0.202051     -0.538382
Pb       3.77403      0.03360      4.34570         0.219399     -0.305978      0.379888
Pb       3.79993     15.28544     17.35001        -0.038012      0.248832     -0.522013
Pb       0.08266      3.81095      4.35502        -0.235408     -0.007287     -0.162179
Pb       0.04748      3.84941      0.00980        -0.106229      0.327665     -0.548226
Pb       0.09536      0.03734      4.37405        -0.593458     -0.318903      0.066066
Pb      15.24191      0.08509     17.36263         0.323391     -0.751182      0.094872
Pb       3.74943      3.82208      8.68257        -0.039010      0.038229     -0.232880
Pb       3.75361     15.29931      8.66504         0.236459      0.058893     -0.262115
Pb      15.10713      3.95715      8.65217         1.147722     -0.643965      0.168918
Pb      15.24374     15.27950      8.74203        -0.041084      0.628171     -0.721764
Pb       3.96705      3.64440     13.04744        -0.300537      0.564632     -0.264801
Pb       3.79622      0.00830     12.94194         0.282995     -0.296004      0.381488
Pb       0.03131      3.77243     13.01565        -0.307266      0.353196      0.313571
Pb      15.27444     15.20258     13.04801        -0.019045      0.216768     -0.378850
Pb       3.83919      7.67896      4.31735        -0.052500     -0.062857     -0.289477
Pb       3.80774      7.65126      0.03495        -0.413545     -0.315207     -0.396494
Pb       0.12489      7.74704      4.28420        -0.476610     -0.282530      0.228855
Pb       0.01237      7.70250      0.05529         0.265976     -0.531230     -0.340506
Pb       3.75384      7.69046      8.63165         0.032405     -0.254067      0.062018
Pb      15.25543      7.64017      8.64510         0.120393      0.084091      0.177355
Pb       3.89915      7.57292     13.07377        -0.157946      0.047855     -0.504132
Pb      15.33275      7.66635     13.06360         0.292282     -0.293259      0.583438
Pb       3.81316     11.52922      4.31307        -0.068324      0.167561     -0.234416
Pb       3.89400     11.57740     17.42259        -0.301609      0.204932     -0.421399
Pb       0.10140     11.55780      4.30081        -0.239000     -0.071430     -0.426738
Pb      15.24325     11.48539     17.39919         0.204880      0.311472      0.134024
Pb       3.86053     11.46221      8.66511         0.081527      0.471043      0.042387
Pb       0.02620     11.48551      8.72550        -0.758447      0.025009     -0.170095
Pb       3.91103     11.37729     13.03028        -0.089435      0.659484     -0.173174
Pb       0.15809     11.47080     13.01555        -0.001951      0.716575      0.206329
Pb       7.65253      3.80329      4.19935         0.550473     -0.441878      0.651997
Pb       7.71053      3.80996      0.05904        -0.345660     -0.342110     -0.343804
Pb       7.64560     15.31601      4.41468         0.375981      0.248113     -0.357455
Pb       7.50908      0.01182     17.35538         0.525742      0.016768     -0.065505
Pb       7.49194      3.92045      8.68627         0.532214     -0.683195     -0.138355
Pb       7.66843      0.02194      8.77913        -0.223831      0.234968     -0.755185
Pb       7.83445      3.88663     13.01130        -0.839375     -0.096381      0.236637
Pb       7.70246      0.08542     12.95581         0.059646     -0.264675      0.574983
Pb       7.72431      7.58892      4.32721         0.035546      0.206150     -0.143254
Pb       7.57657      7.73683      0.02874         0.331910     -0.222978     -0.509671
Pb       7.73453      7.59809      8.72743         0.352518      0.880918      0.130505
Pb       7.72730      7.71747     13.10623        -0.618265     -0.223551     -0.499946
Pb       7.63968     11.41986      4.35421        -0.055281      0.404090     -0.223430
Pb       7.63811     11.62607     17.27297        -0.226321     -0.384329      0.206514
Pb       7.70035     11.58031      8.69299         0.080319     -0.268623     -0.043525
Pb       7.76956     11.60668     12.93554        -0.515174     -0.856700      0.833714
Pb      11.47816      3.74494      4.29185         0.175542     -0.067483     -0.381494
Pb      11.66123      3.88025      0.16508        -0.300920     -0.109838     -0.866150
Pb      11.64868     15.30362      4.37816        -0.480852      0.166942     -0.156993
Pb      11.23809     15.26196      0.03677         0.535684      0.371190     -0.220863
Pb      11.49336      3.86326      8.62085        -0.194433     -0.687293      0.913010
Pb      11.44521      0.06283      8.74498         0.459036     -0.017894     -0.058965
Pb      11.50624      3.73682     13.00157         0.208597     -0.007240      0.440085
Pb      11.45417     15.28488     13.11521         0.106301      0.433243     -0.771688
Pb      11.57830      7.51137      4.36346        -0.122563      0.625114     -0.478659
Pb      11.43315      7.73213     17.42907        -0.117943     -0.234034     -0.566723
Pb      11.62319      7.71195      8.65321        -1.071551     -0.060327      0.283822
Pb      11.35790      7.55395     13.15923        -0.059431      0.363018      0.269366
Pb      11.49690     11.45822      4.25964         0.311039      0.129314     -0.131722
Pb      11.40856     11.47393     17.35704        -0.023483     -0.196453     -0.385552
Pb      11.45240     11.41289      8.66898         0.187583      0.191910     -0.276260
Pb      11.58862     11.49505     13.03891        -0.794092      0.297603      0.272382
Ti       1.92677      1.86592      2.31720         0.002672      0.906613     -0.657503
Ti       1.86341      1.93336     15.33684         1.040967     -0.286145     -0.013503
Ti       1.94210     13.49461      2.29402        -0.518616     -0.658237     -1.365778
Ti       1.81888     13.45176     15.35500         1.190017      0.124433     -0.419006
Ti      13.50324      1.84588      2.25157        -0.969703      0.030523      0.818809
Ti      13.35695      1.80207     15.48169        -0.682513      1.427964     -1.587137
Ti      13.42983     13.40071      2.29363         0.151926      0.387176      0.193798
Ti      13.42412     13.40152     15.33054        -0.261735     -0.493450      0.496365
Ti       1.86612      1.92838      6.67396        -0.317955     -0.251128      0.190990
Ti       1.87193     13.36730      6.71742         0.672107      1.178737     -0.982860
Ti      13.37726      1.91733      6.63843         0.765173     -0.710739     -0.366153
Ti      13.38939     13.40185      6.61705         0.473597      0.645327      0.824818
Ti       1.85365      1.95620     10.93430         0.725768      0.237070     -1.371178
Ti       1.94788     13.55443     10.95638         0.216170     -1.265600      1.106823
Ti      13.41797      1.93090     11.05871        -0.809024     -0.870550     -0.332519
Ti      13.40126     13.34697     10.98888        -0.157726      3.141609      0.861011
Ti       1.88881      5.66762      2.42191         0.513633      1.416173     -0.920441
Ti       1.91204      5.76611     15.41114        -0.411210     -0.168268      0.040043
Ti      13.44399      5.69175      2.26299         0.144054      0.532312      1.309424
Ti      13.37888      5.73347     15.36781         0.155703     -0.571165     -0.035516
Ti       1.90580      5.77061      6.54243        -0.151437     -1.230507     -0.701245
Ti      13.37408      5.83024      6.61928        -0.137181     -0.930243     -1.219674
Ti       1.85544      5.74758     11.02832         1.102627     -0.116495     -0.126755
Ti      13.43548      5.85990     11.10420        -0.463151     -0.874574      0.888256
Ti       1.94073      9.60790      2.24154        -0.251254     -0.359041     -0.081680
Ti       1.83152      9.62259     15.37108         0.619982     -0.385640      1.183394
Ti      13.36478      9.52653      2.29434         0.206499     -0.009905      1.011108
Ti      13.40532      9.56143     15.37588        -0.750117     -0.804482      0.578479
Ti       1.82245      9.58433      6.74421         0.079395      0.136476     -1.590250
Ti      13.38860      9.64098      6.56655        -0.018664     -0.030469     -1.149178
Ti       1.74240      9.56493     10.99413         1.855147      0.014365     -0.295753
Ti      13.30376      9.65202     11.11523         0.452452     -1.038484     -0.792079
Ti       5.72879      1.81473      2.35006         0.730019      0.649484     -0.680100
Ti       5.80243      1.93437     15.33247        -0.484981     -0.267965     -1.024484
Ti       5.74556     13.42209      2.26962        -0.488640      0.034889     -0.680548
Ti       5.66897     13.43075     15.29669         0.052504      0.085982     -1.466908
Ti       5.72120      1.94510      6.71390         0.133102     -0.220814     -1.172396
Ti       5.85778     13.41535      6.63890        -0.371523      0.770243      0.174182
Ti       5.81892      1.94306     11.06401        -0.354987     -0.331096     -0.314688
Ti       5.83827     13.41368     11.03121        -1.541820     -0.110569     -0.247368
Ti       5.82969      5.75328      2.31664        -1.248873      0.022286     -0.267878
Ti       5.72576      5.71304     15.38009         0.406436      0.120861     -0.637042
Ti       5.77163      5.91053      6.64318        -0.938365     -1.784828     -1.441709
Ti       5.71977      5.75240     10.98006         0.002458     -0.237537      0.803597
Ti       5.77151      9.57206      2.32218        -0.724419      0.532646     -0.150881
Ti       5.62425      9.56744     15.35529         0.451244     -0.196273     -1.508113
Ti       5.76794      9.63275      6.66990         0.053214      0.404461     -1.001109
Ti       5.60099      9.54155     10.96892         1.355285      0.046492      0.767359
Ti       9.64779      1.79162      2.39779        -0.296675      0.262671     -0.753451
Ti       9.59719      1.95274     15.40657        -0.430997     -1.542513      0.351041
Ti       9.58171     13.36967      2.26368        -0.611932      0.976103      0.053946
Ti       9.53394     13.44342     15.38305        -0.147982      0.187702     -1.174016
Ti       9.57938      1.92650      6.69903        -0.722756     -0.159728      0.186535
Ti       9.77423     13.40392      6.63923        -1.891212      0.343436      0.817244
Ti       9.63785      1.91034     10.97027        -0.127351      0.136167     -0.507623
Ti       9.60895     13.39164     10.94597         0.396724      0.628901      1.840423
Ti       9.65440      5.76722      2.28910        -0.575168     -0.281605     -1.063159
Ti       9.48971      5.63865     15.46248         0.675700      1.055568     -0.717596
Ti       9.59906      5.74299      6.67275         0.275248      0.075164     -0.745711
Ti       9.59898      5.81176     11.01839        -0.927333     -0.797221      0.879107
Ti       9.54395      9.57265      2.32901         0.551398     -0.671565     -0.274470
Ti       9.42605      9.52966     15.36105         1.413157      0.209798     -0.852820
Ti       9.61281      9.57745      6.46429        -0.599941     -0.044409      0.862085
Ti       9.54011      9.56821     11.04620        -1.357326     -0.505035      0.220002
O       1.96787      1.91826      0.52340        -0.223395     -0.408890      0.852036
O       1.95616      1.93217     13.55220        -0.236075      0.396767      0.507515
O       2.02159     13.53058      0.45571        -0.431942     -0.033951      1.042194
O       1.91350     13.50692     13.58388        -0.489143     -0.312321     -0.253384
O      13.48399      1.77824      0.48298        -0.068002      0.158995     -0.302905
O      13.19526      1.91175     13.65522         0.787247     -0.231721      1.157339
O      13.50837     13.47641      0.51881        -0.108839     -0.324687      0.767883
O      13.47362     13.24162     13.54247        -0.425445      0.430538      1.087967
O       1.92713      2.00147      4.84630        -0.390344     -0.504693      0.588203
O       1.96854     13.39709      4.88830        -0.501159     -0.203393      1.136402
O      13.48282      1.85820      4.85099        -0.203382      0.450270      0.782360
O      13.23756     13.41720      4.86757         0.531542     -0.205782      0.014389
O       1.91917      1.91456      9.09798         0.019558     -0.018713      1.292141
O       1.91108     13.54266      9.19333        -0.416308     -0.365753      0.143923
O      13.26428      1.81874      9.27651         0.550647      0.314869      0.233842
O      13.31735     13.61234      9.26522         0.323187     -0.629256     -0.299267
O       1.88892      5.88384      0.61683        -0.076328     -0.497121      0.496658
O       1.79153      5.63957     13.63148         0.376651      0.295412      0.707013
O      13.38916      5.61121      0.52249         0.041669      0.395499     -0.448380
O      13.49504      5.64454     13.56124        -0.384475      0.333257      0.701751
O       1.83346      5.66921      4.71239         0.209531      0.149344      1.718837
O      13.22277      5.85375      4.82354         0.381314     -0.723559      0.979827
O       1.86518      5.85556      9.23643        -0.073573     -0.011462      0.283088
O      13.43490      5.71535      9.34030        -0.033993      0.559996      0.233597
O       1.84751      9.49322      0.45404         0.219247      0.257357      0.727399
O       1.88873      9.51261     13.62198        -0.147960      0.347676      0.098018
O      13.35479      9.48805      0.53737         0.287838      0.297041     -0.229250
O      13.45244      9.65717     13.60849        -0.327258      0.199043      0.028696
O       1.77764      9.66094      4.92950         0.123848      0.128700      1.119211
O      13.50237      9.54691      4.76147        -0.232541      0.293253      1.323577
O       1.64860      9.48622      9.16668         0.560496     -0.004935      0.591740
O      13.34092      9.58728      9.32948        -0.228743     -0.053868      0.527845
O       5.84526      1.97020      0.54677        -0.383351     -0.374308      1.363892
O       5.82165      1.93873     13.45775        -0.374910     -0.303687      1.492567
O       5.62736     13.41334      0.42392         0.087232     -0.052793      0.989421
O       5.65258     13.39198     13.46210         0.211033      0.001413      1.332029
O       5.67731      1.86909      4.82205         0.340011      0.075006      1.665510
O       5.78187     13.47511      4.82955        -0.170268     -0.361871      1.005636
O       5.77281      1.98431      9.25845         0.099096      0.037926      0.342025
O       5.82240     13.34257      9.22483         0.118328      0.182762      0.856611
O       5.70087      5.74561      0.51202         0.448251      0.184505      1.200883
O       5.94040      5.75693     13.60306        -1.123610     -0.168420      0.649938
O       5.65367      5.85181      4.80813         0.709170     -0.054997      1.363830
O       5.59503      5.70912      9.19493         0.245446      0.186963     -0.393926
O       5.74404      9.50238      0.54341        -0.028957      0.218337      0.099706
O       5.66342      9.61883     13.50140        -0.242307     -0.430292      1.731079
O       5.69326      9.73647      4.84765         0.173773      0.001273      1.126722
O       5.63409      9.60488      9.20340        -0.046644     -0.350052     -0.685031
O       9.57496      1.78047      0.59220        -0.104670      0.215595      0.945643
O       9.52304      1.86851     13.64911         0.367507     -0.054290     -0.227828
O       9.42150     13.49954      0.44525         0.686116     -0.478411      1.274751
O       9.48128     13.44461     13.55091         0.490497     -0.078510      1.381329
O       9.43162      1.95029      4.93054         0.445882      0.001098      0.271486
O       9.75521     13.26061      4.92144        -0.258403      0.400504     -0.616635
O       9.60581      1.92121      9.18294        -0.027010     -0.196863      0.556855
O       9.62595     13.26633      9.22328        -0.051927      0.334531     -0.894179
O       9.54438      5.75418      0.47432         0.101950     -0.250200      0.612451
O       9.39374      5.67438     13.61627         0.821647      0.532014      1.261386
O       9.67566      5.84500      4.84224        -0.163015     -0.665734      1.642287
O       9.52108      5.98955      9.29706         0.200280     -0.422383     -1.242025
O       9.40669      9.51736      0.56780         0.247244      0.255291      0.016096
O       9.47881      9.58245     13.52297         0.219384     -0.270993      1.048000
O       9.66903      9.63980      4.69398        -0.563081     -0.130162      0.540466
O       9.40815      9.49373      9.29429         0.731285      0.042046     -0.490956
O       3.78775      1.98444      2.77082         0.655957     -0.090788     -0.395509
O       3.89166      1.89567     15.79485        -0.768887      0.462340     -0.231524
O       3.74167     13.44754      2.68742         1.150304      0.050575      0.185145
O       3.77327     13.37177     15.65356         0.160922     -0.058454      0.617610
O      15.34722      1.80578      2.66865         0.326635      0.165758      0.112604
O      15.30911      1.93253     15.73093         0.469596     -0.143476      0.043007
O      15.30738     13.52795      2.80083         0.147007     -0.157931     -0.321473
O      15.32534     13.37154     15.73727        -1.237835      0.475108      0.062049
O       3.82536      1.94326      6.98781        -0.302667     -0.070546      0.363724
O       3.75797     13.28448      7.13311         0.695786      0.112820     -0.297996
O      15.32391      1.84007      7.09016        -0.435691      0.042820     -0.194351
O      15.28059     13.43222      7.12448         0.052692     -0.107521     -0.264458
O       3.85605      1.78674     11.32957        -0.135096      0.320601      0.203467
O       3.80692     13.56123     11.35251        -0.055765      0.088306     -0.369866
O      15.32930      2.03034     11.35622         0.076557     -0.155380     -0.036898
O      15.28171     13.33842     11.55008         0.863775      0.287712     -0.972350
O       3.80720      5.68956      2.73620         1.206824      0.148477     -0.071364
O       3.83141      5.71195     15.85272        -0.229528     -0.090889     -0.342885
O      15.31978      5.73598      2.76985        -0.564298      0.127622     -0.363332
O      15.26427      5.79334     15.88847         0.514442     -0.264876     -0.210502
O       3.76946      5.65997      6.94632        -0.425518      0.649320      0.114683
O      15.19332      5.80394      7.06968         1.166936     -0.130197     -0.228412
O       3.81070      5.66096     11.42332        -0.098205      0.572148      0.208221
O      15.33303      5.70678     11.55042        -0.084340     -0.493872     -0.648409
O       3.79375      9.63732      2.70892         0.535362     -0.267317      0.015792
O       3.77538      9.62357     15.76869        -0.317284      0.225550     -0.026816
O       0.13353      9.40133      2.69519        -1.574148      1.071405     -0.463205
O      15.25184      9.40426     15.82169         0.286974      0.724014     -0.313751
O       3.73178      9.63294      6.98904         0.084075     -0.022076      0.422389
O      15.13374      9.54975      7.13311         1.691838     -0.006727      0.008589
O       3.76145      9.43221     11.40813        -0.474531      0.332337     -0.213600
O      15.33464      9.69565     11.45337        -0.461350      0.260149     -0.058201
O       7.67569      1.80114      2.88860        -0.984564      0.118913     -0.709128
O       7.62845      1.93026     15.86025         0.116851     -0.482112     -0.063046
O       7.58287     13.50589      2.64337         0.843561     -0.328024      0.166304
O       7.64090     13.38821     15.72046        -0.781031      0.337731     -0.037056
O       7.64761      1.86269      7.22710        -0.502049      0.053142     -0.549787
O       7.75627     13.37594      6.97790        -0.796730      0.753176      0.110776
O       7.74902      1.88655     11.47455        -0.455514      0.140805     -0.762842
O       7.68138     13.37486     11.45934         0.676215     -0.029685     -0.846922
O       7.76985      5.84022      2.73190        -1.391712     -0.427604     -0.100209
O       7.60282      5.80924     15.77491         0.720208     -0.289590      0.673198
O       7.64689      5.79495      7.10795        -0.085901      0.111569     -0.533328
O       7.63658      5.73899     11.38664        -0.061418     -0.099794     -0.434057
O       7.62649      9.51093      2.73522         0.554103      0.838590      0.269222
O       7.62293      9.58382     15.75746        -1.252044     -0.288247      0.225086
O       7.63799      9.43259      6.86669         0.030094      0.505410      0.076602
O       7.62420      9.48273     11.37094        -0.227352      0.325755      0.062557
O      11.58746      1.80013      2.73977        -1.051614      0.838446     -0.026692
O      11.45200      1.85986     15.77317         0.158889     -0.370415      0.499342
O      11.43099     13.43602      2.75347         0.389601     -0.321220     -0.854255
O      11.47228     13.51533     15.77993        -0.130360     -0.836871     -0.300169
O      11.45066      1.99417      6.99981         0.935176      0.343899     -0.001515
O      11.55741     13.43990      7.16376        -0.243418     -0.790826     -0.007107
O      11.48664      1.86970     11.45706        -0.095662     -0.056955      0.173891
O      11.45260     13.42259     11.55237         0.281759     -0.272781     -0.532544
O      11.45167      5.65698      2.65774         0.970926     -0.064935      0.176814
O      11.49445      5.69478     15.81243        -0.811841     -0.291110     -0.126151
O      11.53291      5.65649      7.22848        -1.130136      0.766032     -0.820135
O      11.46386      5.97096     11.48897         1.285194     -0.750024     -0.380081
O      11.52390      9.57656      2.61823        -0.476278      0.474052     -0.082595
O      11.30302      9.60406     15.90191         1.402286      0.439900     -0.254565
O      11.48142      9.59125      6.92599        -0.455732      0.302692      0.405625
O      11.44682      9.40991     11.48067         0.841885      0.564089     -0.052171
O       1.82947      3.81183      2.70155        -0.127643     -0.997698     -0.082664
O       1.92420      3.87111     15.94717        -0.326138     -0.485731     -0.535173
O       1.89119     15.34050      2.82795         0.270135      0.825976     -0.358689
O       1.92828      0.00219     15.57190        -0.344676      0.684044      0.863407
O      13.39471      3.81593      2.65262         0.036181     -0.717758      0.011918
O      13.28851      3.75712     15.94385         0.839921      0.066799     -0.405172
O      13.28330     15.34583      2.73917         1.060681     -0.636093     -0.294312
O      13.39554     15.23351     15.82758         0.391076      0.817474     -0.504039
O       1.71493      3.82599      6.89249         0.349645      0.749786      0.451589
O       1.91589     15.28523      7.03477         0.008950      0.453339     -0.146760
O      13.40928      3.84885      7.19296        -0.238418     -0.249635     -1.019770
O      13.32228      0.00587      6.98162         0.111236     -0.077360      0.178916
O       2.04876      3.82628     11.25877        -0.756896     -0.357683      0.395006
O       1.76423      0.05608     11.33747        -0.050070     -0.504821      0.197031
O      13.25759      3.79906     11.48177         0.678270      0.999209     -0.440296
O      13.41571     15.33472     11.49132         0.184085      0.056771      0.191143
O       1.94592      7.63243      2.81871         0.466417      0.619459     -0.311041
O       1.96303      7.65591     15.86987        -0.336120      0.189091     -0.438471
O      13.25023      7.61025      2.68766         0.852506      0.150228     -0.370509
O      13.22205      7.64652     15.68251         0.243805      0.342995      0.004445
O       1.77913      7.63251      6.87367         0.219962      0.350545      0.570300
O      13.23258      7.65038      7.01513         0.469424      0.900925     -0.008049
O       1.81352      7.65111     11.47383        -0.067366      0.245905     -0.232527
O      13.67675      7.77207     11.46523        -1.098522     -0.977104     -0.405059
O       1.92032     11.61372      2.67552        -0.649400     -1.451066     -0.072385
O       1.67298     11.54776     15.82425         0.768746     -1.468299     -0.448666
O      13.50580     11.49155      2.74568        -0.095656     -0.039965     -0.575891
O      13.33184     11.45461     15.95015         0.224949      0.314423     -0.717513
O       1.77097     11.47690      7.18290        -0.197156     -0.366487     -0.197518
O      13.36529     11.51476      7.19523         0.039644     -0.241895     -0.668787
O       2.03300     11.52845     11.44017        -0.725262     -0.464581     -0.582618
O      13.32496     11.57983     11.32284        -0.282116     -2.543332      0.335620
O       5.88870      3.87063      2.68253        -0.503056     -0.227848     -0.133194
O       5.81015      3.76500     15.79789        -0.391258      1.063731      0.009862
O       5.54112     15.32323      2.64642         0.537664      0.494864     -0.014996
O       5.67608     15.33722     15.69197         0.411004     -0.227199      0.090949
O       5.67887      3.85787      7.01977         0.611559     -0.155421      0.052269
O       5.69365     15.30102      7.17754         0.284546      0.060506     -0.519713
O       5.77044      3.79807     11.53635        -0.058004      0.183447     -0.888002
O       5.93385     15.29739     11.38438        -0.575784      0.532540     -0.348856
O       5.81818      7.73277      2.76428        -0.724507     -1.102135     -0.180748
O       5.64470      7.64858     15.64447         0.111102      0.673355      0.512979
O       5.60782      7.71049      6.93138        -0.113021      0.165753      0.504903
O       5.65401      7.59944     11.35656         0.156969      0.296753      0.030726
O       5.67566     11.57548      2.64428         0.278134     -0.855732      0.191993
O       5.66636     11.52215     15.72298         0.320143     -0.492241      0.268448
O       5.82965     11.55096      7.20655        -0.434801     -0.913256     -0.849415
O       5.65864     11.44328     11.40235         0.032656      0.426248     -0.256581
O       9.58421      3.73875      2.75382        -0.211259      0.511204     -0.169692
O       9.47818      3.74608     15.80475         0.110759      1.654220      0.260504
O       9.53706     15.32139      2.81768         0.292085     -1.071186     -0.085303
O       9.46670      0.00873     15.92638         0.207805     -0.508673     -0.714133
O       9.53547      3.84750      7.23155        -0.194900      0.850265     -0.804588
O       9.76026      0.01830      7.07866        -1.025683     -0.603499     -0.311317
O       9.56290      3.79215     11.45242         0.678961      0.878359     -0.587056
O       9.63924     15.35822     11.30987        -0.433330     -0.895890      0.025533
O       9.61376      7.65747      2.63634         0.059075      0.083982      0.277230
O       9.63137      7.65069     15.80782        -0.741167     -0.296944     -0.392594
O       9.60564      7.66700      6.98449         0.195125     -0.202952      0.090163
O       9.50930      7.60642     11.46798         0.000610      1.098643      0.590121
O       9.62591     11.49087      2.70012        -0.723852      0.445447     -0.362273
O       9.45853     11.50776     15.76087         0.612221      0.323612      0.074046
O       9.45527     11.47964      6.99252         0.959041     -0.949616      0.119048
O       9.58243     11.47218     11.38194         0.317696      0.095181     -0.091120
