  # total energy = -7879.33192676 
CRSYTAL
PRIMVEC
    15.6000000000000000    0.0000000000000000    0.0000000000000000
     0.0000000000000000   15.6000000000000000    0.0000000000000000
     0.0000000000000000    0.0000000000000000    17.640000000000000
PRESSURE
-3.00681 -2.95668 -2.77015 -0.000474 -0.246614 -0.065121
PRIMCOORD
320 1
Pb       3.87662      3.92193      4.27455        -0.002358      0.079165     -0.159739
Pb       3.77373      3.73453     17.54721         0.653766      0.648425      0.371201
Pb       4.09349      0.09649      4.35312        -0.593223     -0.043337      0.830887
Pb       3.98514     15.49081     17.47196         0.229426      0.407633      0.238386
Pb       0.01466      3.89224      4.30060        -0.104740     -0.217114      0.459337
Pb      15.50161      3.82477     17.59282        -0.280427      0.449250      0.161754
Pb      15.58511     15.55812      4.31242         0.086077      0.397901      0.959594
Pb       0.21286     15.49816     17.51708        -0.843401      0.238822      0.277782
Pb       3.94933      3.80408      8.69926         0.090251      0.011600      0.800161
Pb       3.86082     15.56154      8.74534        -0.185868      0.121262     -0.050060
Pb       0.01663      3.79013      8.64272        -0.453640      0.412453      1.231949
Pb       0.05195     15.50964      8.96550         0.006862     -0.233319     -0.393444
Pb       3.71017      4.10787     13.06956         0.419205     -1.020700      1.204060
Pb       3.81049      0.00066     13.17193         0.046003      0.332949     -0.369250
Pb      15.48475      3.82781     13.19660         0.402186     -0.031155     -0.294987
Pb       0.02695      0.00466     13.10319        -0.719123      0.310114      0.597206
Pb       3.81293      7.77106      4.18576        -0.129126     -0.186542      0.902206
Pb       3.71372      7.78669     17.55700         0.392708     -0.474893      0.429396
Pb      15.47431      7.74274      4.43442         0.230550      0.473639     -0.406990
Pb      15.45117      7.76318      0.03131         0.022517     -0.305482     -0.103228
Pb       3.86907      7.76679      8.72861        -0.057603     -0.113237      0.301268
Pb       0.06885      7.73217      8.68062        -0.493282      0.189469      0.483325
Pb       3.87661      7.83231     13.16640        -0.382192      0.007355      0.618772
Pb      15.34494      7.83733     13.17750         0.785999     -0.333611      0.281388
Pb       3.88693     11.67776      4.27623         0.315158     -0.552639      1.469058
Pb       3.93566     11.63044     17.56117        -0.249275      0.031396      0.198490
Pb      15.55376     11.60547      4.40010        -0.045047      0.050082      0.653219
Pb      15.57561     11.57622      0.13355        -0.570932      0.139998     -0.370320
Pb       3.89598     11.68789      8.63092         0.177780     -0.099527      0.604642
Pb       0.01742     11.60528      8.79054        -0.272141      0.302455      0.210563
Pb       3.91078     11.65399     13.22793         0.128130     -0.442391     -0.730552
Pb       0.10617     11.60347     13.20289        -0.305139     -0.025121     -0.036995
Pb       7.83345      4.08365      4.28180        -0.514740     -0.289006      0.462350
Pb       7.79673      3.79982     17.46362        -0.350331     -0.096984      0.675484
Pb       7.98509      0.00909      4.29776        -0.455763     -0.008815      0.387622
Pb       7.90688     15.41832     17.61279        -0.346328      0.568256     -0.014994
Pb       8.00354      3.89566      8.66804        -0.774933     -0.135537      0.937676
Pb       7.75041     15.49855      8.65026         0.011228      0.229490      0.577150
Pb       7.64666      3.86258     12.98972        -0.440607      0.538521      1.497011
Pb       7.68266     15.43646     13.20221         0.604927      0.705970     -0.074253
Pb       7.66449      7.88188      4.29594         0.438691     -0.172283      0.683853
Pb       7.82598      7.80285     17.52550        -0.003565     -0.019616      0.660072
Pb       7.85679      7.78203      8.75340        -0.007205     -0.132941      0.002119
Pb       7.79588      7.67932     13.11091        -0.295967     -0.336157      0.752980
Pb       7.74925     11.77437      4.33304         0.282199     -0.052250      0.157367
Pb       7.74936     11.75290      0.03421         0.197073     -0.641176     -0.128584
Pb       7.71814     11.65269      8.86816        -0.451424      0.110264     -0.538712
Pb       7.82301     11.52346     13.20731         0.096256      0.276573      0.311001
Pb      11.54030      4.01308      4.34342         0.306075     -0.492756      0.247436
Pb      11.70261      4.01215     17.47245         0.291667     -0.617851      0.745422
Pb      11.77493      0.03240      4.35743        -0.218475      0.395782      0.476851
Pb      11.73310      0.01197     17.51621         0.274426      0.104740      0.241379
Pb      11.70582      3.91330      8.76425         0.175011     -0.431859      0.094874
Pb      11.62479     15.52029      8.80860        -0.189690      0.810808      0.854039
Pb      11.55790      3.92142     13.18085         0.173044     -0.522985      0.556818
Pb      11.73738     15.55301     13.19085        -0.067882     -0.161531     -0.122382
Pb      11.63864      7.82625      4.32101        -0.283579      0.200348      0.673979
Pb      11.72626      7.89284     17.58719        -0.034982     -0.161186      0.873193
Pb      11.78939      7.73930      8.76833        -0.033760     -0.053565      0.058619
Pb      11.68023      7.84576     13.18604        -0.156817      0.280398      0.668786
Pb      11.75877     11.90870      4.48875        -0.484169     -0.618855     -0.241180
Pb      11.64954     11.81782      0.02462         0.365324     -0.727456      1.131117
Pb      11.62352     11.71979      8.69507         0.245578     -0.069201      1.016556
Pb      11.82344     11.71540     13.12872        -0.631911     -0.210587      0.644230
Ti       1.94233      1.89336      2.33049         0.292500      0.163556     -0.108882
Ti       1.97541      1.90346     15.57837        -0.683955      0.868904     -2.399742
Ti       1.97125     13.61800      2.53858        -0.402886      0.027722      0.046791
Ti       1.93652     13.59954     15.53451        -0.537472     -0.418142     -0.163295
Ti      13.63518      1.99164      2.35601        -0.730135      0.429019     -0.963414
Ti      13.72116      1.84857     15.55965        -0.495545      0.780904     -0.141119
Ti      13.70921     13.67785      2.46732        -1.302827     -0.229883      0.301900
Ti      13.65925     13.56499     15.74609         0.561856      0.063080      0.783614
Ti       1.87420      1.94208      6.77690         0.867268     -1.537986     -1.262006
Ti       1.85824     13.58715      6.84836        -0.233891      0.830242      0.268768
Ti      13.70046      1.82567      6.85695        -1.379440      0.728720      0.074449
Ti      13.55029     13.66627      6.93769         1.210460      0.467500     -0.459130
Ti       1.95677      1.91883     11.30897        -0.765336      0.809151     -0.271564
Ti       1.95760     13.58786     11.24324         0.278615      0.334534     -0.228559
Ti      13.52782      1.95163     11.22101         0.905419     -0.514340      1.195443
Ti      13.73618     13.52986     11.22867        -0.749271      1.849259     -1.654993
Ti       1.75367      5.80906      2.40765         0.566427      0.472948     -1.121270
Ti       1.82644      5.77517     15.70350         0.502041      1.315215     -0.712940
Ti      13.50200      5.84926      2.45107         0.340067      1.028277     -1.961961
Ti      13.53873      5.85521     15.55840         1.360172      0.051478     -0.178921
Ti       1.94542      5.78998      6.85081         0.114928      0.435007     -1.609917
Ti      13.59859      5.79392      6.76050         0.177995      0.430609      1.635728
Ti       1.86250      5.91817     11.17557        -1.007461     -0.550727     -1.181103
Ti      13.54617      5.77251     11.34136         1.668622      0.450437     -0.434503
Ti       1.84080      9.73088      2.43971        -0.481439     -0.462607      0.564024
Ti       1.84893      9.77183     15.67499         0.311824     -0.999894     -0.443780
Ti      13.50010      9.79277      2.58390         0.254624     -0.147159     -1.756628
Ti      13.64427      9.75047     15.63412        -0.314282      0.126236     -1.010466
Ti       1.91216      9.75022      6.81102        -0.124634     -0.223499     -1.724941
Ti      13.52477      9.84898      6.80523         0.791154     -1.668247     -1.519422
Ti       1.87564      9.73366     11.11118         0.354985     -0.534570     -0.036771
Ti      13.57609      9.72420     11.18695         0.205771     -0.331998      1.149290
Ti       5.89727      1.91956      2.36404         0.233396      1.057122     -0.582745
Ti       5.92458      1.91303     15.50372        -0.292685      0.387496      0.078053
Ti       5.78355     13.69826      2.43906         1.712681      0.013991     -0.991118
Ti       5.82200     13.63536     15.47941         0.499774     -0.352834      0.220985
Ti       5.82543      1.91269      6.78165         0.220274     -0.058743     -0.416581
Ti       5.75478     13.57358      6.73426         0.195963     -0.269026     -0.878389
Ti       5.79415      1.84759     11.17818        -0.019967      0.421416     -0.197770
Ti       5.85394     13.57196     11.25179        -0.115814     -0.206932     -0.277333
Ti       5.75903      5.87221      2.33740         1.111089     -0.434921     -1.080422
Ti       5.84081      5.77897     15.75772        -1.321175      0.091984     -2.041262
Ti       5.85207      5.79855      6.86220         0.084419      0.060971     -1.318083
Ti       5.70546      5.84823     11.18173         0.849273     -1.743425     -1.278901
Ti       5.76164      9.73283      2.36300         0.837674      0.122583     -1.643210
Ti       5.83840      9.67778     15.77210        -0.114301     -0.191853     -0.882611
Ti       5.82571      9.63727      6.79229         0.676524      0.936579     -0.609182
Ti       5.82491      9.64882     11.25090        -0.885941      0.644980     -1.452900
Ti       9.74474      2.03700      2.32270         0.444370     -0.567588      0.870004
Ti       9.81095      1.89064     15.59191        -0.502986     -0.303320     -1.073158
Ti       9.84456     13.72721      2.48102        -0.823736     -1.543953     -0.429665
Ti       9.73086     13.57498     15.68376         0.948142     -0.042871     -1.596857
Ti       9.72569      1.92913      6.81218         0.366143     -0.435833      1.237269
Ti       9.68273     13.54920      6.83359        -0.559907      1.150537     -2.154429
Ti       9.65984      1.94326     11.35434        -0.122573     -1.039964     -1.102232
Ti       9.72224     13.55665     11.34999         0.581380      1.355880     -0.030130
Ti       9.66765      5.99672      2.43624        -0.079319     -0.885538     -0.970705
Ti       9.73224      5.82908     15.66676        -0.096933      0.631485     -1.112467
Ti       9.80345      5.89083      6.77422        -0.772210      0.083727     -2.155908
Ti       9.77014      5.87541     11.31467        -0.745732     -0.753422     -1.676891
Ti       9.64172      9.83507      2.52754         1.891269      0.164159     -0.951919
Ti       9.86655      9.80527     15.77187        -1.370468     -0.885963     -1.670398
Ti       9.72545      9.77156      6.74434        -0.837651     -1.105951     -0.482917
Ti       9.64743      9.72263     11.18596         1.443215     -0.029854      2.130543
O       1.94559      1.78094      0.56052        -0.109949      0.034317      0.741551
O       1.92787      1.94864     13.67023         0.205390     -0.097151      2.593019
O       1.89954     13.59878      0.80808         0.118046      0.261201     -0.415566
O       1.84298     13.63059     13.77817         0.590477     -0.352858      0.586027
O      13.56946      2.01235      0.56703         0.171980     -0.221119      1.495082
O      13.74599      1.88238     13.77267        -0.385624      0.178138      1.257558
O      13.66826     13.66285      0.75327         0.360939      0.242835     -0.911625
O      13.65260     13.50452     14.06701        -0.043087     -0.183625     -1.964653
O       1.86669      2.13819      5.01567         0.232933     -0.586132      0.374480
O       1.88960     13.54823      5.14736        -0.277351      0.012543     -1.332165
O      13.53228      1.88235      5.13000         0.436641     -0.170109      0.050168
O      13.50481     13.70993      5.15147         0.083622      0.262751      0.574697
O       2.03377      1.74622      9.55999        -0.449101      0.245921     -0.784020
O       1.88995     13.56019      9.49017         0.055853      0.290566     -0.160201
O      13.53307      2.07672      9.50475         0.217924     -0.266319     -0.556921
O      13.65679     13.57330      9.41738        -0.210870     -0.180106      0.991321
O       1.68717      5.87137      0.64509         0.143543     -0.012915      0.629031
O       1.95552      5.94911     13.94218        -0.230982     -0.517894      0.713635
O      13.52615      6.09455      0.63390        -0.026805     -0.785250      1.470498
O      13.61077      5.78338     13.78284        -0.150811      0.062037      0.404101
O       1.89877      5.74563      4.99581         0.227000      0.083638      1.605687
O      13.60698      5.73618      5.08435         0.111634      0.260916     -2.033994
O       1.97490      5.89449      9.37056        -0.253286     -0.096447      0.310994
O      13.51975      5.89760      9.60491        -0.201428     -0.148151     -0.909870
O       1.82004      9.78237      0.70540         0.042959      0.328866     -0.424255
O       1.82974      9.66075     13.90872         0.199821      0.521545      0.297449
O      13.57791      9.74015      0.78493         0.148843      0.168983      0.516685
O      13.66189      9.64149     13.82336        -0.026778      0.785700      0.505255
O       1.82868      9.71001      4.98358         0.175073      0.006232      1.503037
O      13.57446      9.85207      5.00103         0.234875     -0.382531      0.797295
O       1.87097      9.70053      9.35235         0.159262      0.293276      0.033641
O      13.58091      9.70815      9.49068        -0.067815     -0.011122     -1.603009
O       5.85775      1.93863      0.63921        -0.074894     -0.567386     -0.485876
O       5.95575      1.88015     13.78055        -0.478824     -0.014810     -0.431625
O       5.80968     13.95782      0.62330         0.001062     -0.679826      1.412065
O       5.97443     13.55830     13.69188        -0.617817     -0.273174      1.149705
O       5.81553      1.84823      5.01642        -0.041728      0.283626     -0.087067
O       5.78506     13.61024      4.94156         0.121631      0.067013      0.553822
O       5.82711      1.83283      9.40865        -0.184068     -0.028066      0.539126
O       5.86376     13.53798      9.50047         0.165820     -0.073067     -0.221489
O       5.86001      5.90658      0.59020        -0.050853     -0.109530     -0.085658
O       5.81354      5.75732     13.94337        -0.193401      0.485340      1.166671
O       5.81259      5.85097      5.06044         0.075589     -0.274742      0.993230
O       5.66983      5.65066      9.40359         0.010759      0.880391      0.549053
O       5.74637      9.71392      0.55727         0.138888      0.365966      0.981151
O       5.62863      9.64704     13.99647         0.322109      0.502125     -0.195368
O       6.02424      9.83703      5.06163        -0.560929     -0.791864     -0.395187
O       5.86491      9.61859      9.47396         0.087818      0.128359      0.640367
O       9.76931      1.93763      0.61562         0.147461     -0.042428     -1.251067
O       9.61459      1.89682     13.85210         0.514643      0.080755      0.308063
O       9.83832     13.55157      0.70982        -0.311144      0.538096     -0.626477
O       9.81706     13.52304     13.91295        -0.252938     -0.156418      0.438671
O       9.69638      1.80106      5.12626         0.242004      0.310106     -1.256538
O       9.68719     13.55622      4.98636         0.155858      0.311754      1.962247
O       9.63902      1.96063      9.59333         0.043984      0.201040     -0.171497
O       9.76480     13.63414      9.62709        -0.024554     -0.487407     -1.239056
O       9.65042      5.97333      0.66525         0.151977     -0.484037     -0.313512
O       9.78827      5.81894     13.88037        -0.302273      0.212157      1.001965
O       9.76489      5.86469      4.91439        -0.178204     -0.200335      1.752721
O       9.87376      5.87206      9.52911        -0.087633     -0.085834      0.552546
O       9.75061      9.79119      0.75876        -0.118084      0.153607     -0.431210
O       9.81933      9.76812     13.99693        -0.117873      0.020905      0.327973
O       9.62981      9.70913      5.00225         0.233970      0.107761      0.326645
O       9.65243      9.69398      9.50962         0.026331      0.156703     -1.724748
O       3.87557      1.96959      2.64845         0.109923     -0.289441      0.720614
O       3.79558      1.96708     15.98036         0.832298     -0.404521     -0.176479
O       3.96482     13.50652      2.91179        -0.912944      1.110182     -0.811229
O       3.94535     13.61331     16.01394        -0.501297      0.629082     -0.605841
O       0.03740      1.98896      2.73609        -0.517415     -0.225369      0.004455
O      15.58484      2.05925     16.06271         0.259654     -0.748143     -0.367720
O      15.51066     13.61751      3.01933         1.180498      0.254510     -0.603517
O       0.04729     13.55643     16.05912         0.884212      0.389026      0.278009
O       3.91958      1.81172      7.10889        -0.771598      0.043438      0.345441
O       3.80071     13.61113      7.11157         0.742950     -0.330683      0.531656
O      15.58542      1.82751      7.21760         0.041544      0.331136      0.142600
O      15.44446     13.62211      7.37192         0.711011     -0.288485     -0.389778
O       3.85124      1.82329     11.56079         1.095093      0.051575      0.479050
O       3.91108     13.61717     11.56133        -0.171784     -0.023175      0.630272
O      15.52359      1.94623     11.70088        -0.053561     -0.138370     -0.626173
O       0.05249     13.69382     11.61539        -0.578309     -0.773882      0.005723
O       3.89653      5.90616      2.77321        -0.570975     -0.109360     -0.069991
O       3.77860      5.75088     16.13863         0.161252      0.314269      0.044538
O      15.49512      5.80368      2.85972         0.250099      0.494905      0.070106
O      15.38720      5.90732     16.06989         1.530266     -0.259707      0.017044
O       3.86396      5.78773      7.25349        -0.437194     -0.220190     -0.343205
O       0.02321      5.83487      7.22267         0.097984     -0.038885     -0.233157
O       3.73681      5.86825     11.65535         1.056488      0.747211     -0.320473
O      15.58376      5.73126     11.64502        -0.163447      0.718813     -0.016450
O       3.88305      9.65692      2.78326        -0.195244      0.503306     -0.165496
O       3.76617      9.70273     16.18025         0.457566      0.420268     -0.224865
O      15.54590      9.69575      2.84183         0.015252      0.619042      0.309018
O      15.50016      9.80696     16.04585         1.305903      0.301214      0.394054
O       3.94454      9.82222      7.11544        -1.196432     -0.753938      0.211404
O      15.56539      9.72297      7.28654        -0.107044      0.071780     -0.550689
O       3.83131      9.72173     11.55462         0.435216     -0.120022      0.430679
O      15.54405      9.74251     11.59341         0.333630      0.098505      0.057519
O       7.84496      1.80986      2.61999        -0.132760      0.244167      0.577622
O       7.74135      1.87411     15.99511         1.141036      0.215667      0.323596
O       7.88106     13.72291      2.72791        -1.359977     -0.211595      0.204733
O       7.85745     13.55152     16.05850        -1.009011      0.244710     -0.024147
O       7.75384      1.99802      7.20650         0.554461     -0.790734      0.049822
O       7.72530     13.51429      7.22817         0.727409      0.021938      0.015241
O       7.70252      1.98549     11.67963        -0.483782     -0.682826     -0.532528
O       7.84403     13.47779     11.64425        -0.746517      0.213241      0.274267
O       7.81822      5.89750      2.90899        -0.919785      0.029479     -0.336026
O       7.75167      5.78736     16.07648         0.965009      0.115840     -0.213484
O       7.80580      5.90709      7.25791        -0.180211     -0.544772     -0.223471
O       7.73562      5.82760     11.53733        -0.028711      0.342626      0.172917
O       7.84669      9.81684      2.77637        -2.246231     -0.246769      0.237453
O       7.74007      9.84478     16.04627        -0.050074     -0.266497      0.296719
O       7.81468      9.63559      7.19351        -0.092117      0.300807      0.597145
O       7.76923      9.66494     11.63537        -0.142399      0.005250      0.179059
O      11.72499      2.11975      2.82826        -0.097539     -0.690164     -0.222910
O      11.75077      1.88003     15.97571        -0.483215      0.050182     -0.155356
O      11.67274     13.58694      2.85899         1.265382      0.793331      0.242576
O      11.76629     13.56938     16.18183        -0.800479      0.662860     -0.429944
O      11.62836      1.93779      7.36382         0.179140     -0.106086     -0.478438
O      11.60011     13.71691      7.33468         0.393871     -1.166283     -0.372148
O      11.60888      1.83728     11.67199         0.408253      0.750264      0.135203
O      11.79412     13.63176     11.78272        -0.591636     -0.413912     -0.352116
O      11.59846      5.89454      2.87544         0.781873     -0.516007     -0.213595
O      11.71569      6.02801     15.99298        -1.281820     -0.960811      0.214492
O      11.65479      5.80794      7.15962         0.835685     -0.041553      0.253098
O      11.69723      5.75483     11.77684        -1.473038      0.215099     -0.287217
O      11.66928      9.72549      2.96481        -0.200967      0.234137     -0.084460
O      11.71711      9.79701     16.11470         0.281279      0.031461     -0.121842
O      11.61193      9.80541      7.18835         0.633768     -0.255777      0.126769
O      11.71643      9.65048     11.60293        -0.901178      0.461177     -0.063587
O       1.98205      3.90834      2.66805        -0.229329     -0.442388      0.359856
O       1.87013      3.87042     16.18813        -0.308874     -0.091689     -0.783026
O       1.93927     15.50422      2.96063         0.100561      0.685007     -0.649733
O       1.95194      0.02952     15.89215        -0.192132     -1.105309      0.283875
O      13.64109      4.00085      2.79959        -0.183859     -1.086164     -0.144906
O      13.58878      3.96022     16.12481        -0.215502     -0.272073     -0.756322
O      13.61076      0.08801      2.89927         0.223289     -0.199532     -0.572950
O      13.71527      0.02720     16.03096         0.033267     -0.651821      0.195734
O       1.89117      3.74607      7.20188         0.297697      1.614885      0.192314
O       1.82905     15.48885      7.23323         0.254022      0.771454      0.212021
O      13.70175      3.89907      7.21419        -0.243305     -0.345731      0.196040
O      13.64023     15.58560      7.44797        -0.339690      0.018309     -0.612637
O       1.91407      3.90586     11.57738         0.114322     -0.030687     -0.053924
O       1.85973      0.01695     11.71744         0.775590     -1.133321     -0.290915
O      13.63371      3.87387     11.64863        -0.658418     -0.673778      0.225479
O      13.61809     15.48410     11.66499         0.200994      0.712521     -0.222816
O       1.79746      7.79923      2.73797         0.519407     -0.289201      0.560796
O       1.89922      7.81117     16.15823        -0.681435     -0.051358     -0.336843
O      13.54567      7.81846      2.83671         0.467715     -0.547318      0.819164
O      13.65087      7.89615     15.87295        -0.264167     -0.605578      0.695629
O       1.98759      7.82886      7.19419        -0.107624     -0.818453     -0.163671
O      13.56538      7.79905      7.14642         0.145424     -0.224503      0.145520
O       1.86509      7.83731     11.42981         0.008579     -0.041839      0.476689
O      13.51058      7.72274     11.71992         0.678861      0.628833     -0.346558
O       1.88025     11.72044      3.04896         0.154716     -0.476882     -1.169735
O       2.06749     11.72636     16.00428        -0.589010     -0.089109     -0.112168
O      13.56129     11.79603      2.85070         0.415026     -0.831058      0.254742
O      13.68162     11.69067     16.25601        -0.059370     -0.172924     -0.366183
O       1.89922     11.64414      7.29726        -0.172809     -0.060967     -0.227525
O      13.61325     11.67136      7.09052        -0.451180      0.650755      0.811696
O       1.98853     11.70195     11.63089        -0.472020     -0.659872      0.259076
O      13.67754     11.69341     11.56339         0.008921     -0.898586      0.418342
O       5.93997      3.97933      2.58738        -0.251570     -1.053615      0.988144
O       5.78137      3.82607     15.99609         0.282564      0.021925      0.457271
O       5.87958      0.03912      2.90017        -0.483084     -0.857883     -0.458635
O       5.91285     15.57020     15.76929        -0.600649     -0.927989      0.705346
O       5.81560      3.80141      7.23300        -0.011515      0.612387     -0.356032
O       5.81501     15.42520      7.17675         0.243083      1.019200      0.080034
O       5.68226      3.94584     11.61378         0.063238     -0.620958     -0.222571
O       5.80797     15.49795     11.60702         0.478891      0.509967      0.056030
O       5.95701      7.82609      2.69150        -0.593948      0.386389      0.479814
O       5.79002      7.77582     15.99883         0.057678     -0.111856      0.474573
O       5.78223      7.71092      7.19457         0.008718      0.310128      0.198049
O       5.82803      7.68098     11.67048        -0.327894      1.216697     -0.009557
O       5.86334     11.66353      2.73680        -0.063368      0.486866     -0.279059
O       5.76487     11.75494     16.11847         0.276755     -0.006669     -0.358030
O       5.77603     11.62028      7.10883         0.544236      0.562084      0.819013
O       5.86922     11.57958     11.58122        -0.219810     -0.120922      0.526680
O       9.64845      3.88585      2.82577         0.296243     -0.007040     -0.210827
O       9.84129      3.80173     15.95586        -0.287972      1.198253      0.267158
O       9.86207     15.58117      2.85463         0.041546      1.097897     -0.297965
O       9.77365     15.49760     15.91940         0.031580      0.465797      0.789048
O       9.74960      3.94327      7.11433        -0.090683     -0.569243      0.192567
O       9.76475     15.47974      7.23507        -0.838265      0.514216      0.018203
O       9.56405      3.91906     11.69853         1.485751     -0.064474     -0.197915
O       9.66065     15.57132     11.65114         0.027898     -0.345711      0.553286
O       9.71212      7.78335      2.74699         0.097097      1.441072      0.700897
O       9.77392      7.77972     16.14068        -0.565890     -0.055685     -0.470791
O       9.77725      7.73642      7.18395         0.084967      0.795032      0.266943
O       9.67033      7.75867     11.64626         0.490066      0.395237      0.134581
O       9.80165     11.69798      2.97760        -0.269935      0.303142     -0.313715
O       9.76337     11.63769     16.14821        -0.113161      1.092330      0.251587
O       9.75030     11.66158      7.23433        -0.266703      0.243245      0.138178
O       9.77322     11.63518     11.67818        -0.045407     -0.725431     -0.076540
