  # total energy = -7877.39293347 
CRSYTAL
PRIMVEC
    15.2000000000000000    0.0000000000000000    0.0000000000000000
     0.0000000000000000   15.2000000000000000    0.0000000000000000
     0.0000000000000000    0.0000000000000000    17.000000000000000
PRESSURE
7.66007 7.47767 1.67838 -0.200563 0.03872 -0.067248
PRIMCOORD
320 1
Pb       3.67609      3.93914      4.39860         0.080415     -0.059480     -0.315951
Pb       3.72545      3.81432      0.06102         0.325462      0.011656     -0.241378
Pb       3.72293      0.10652      4.30332        -0.315683     -0.251422     -0.503436
Pb       3.96294     15.19184      0.08037        -0.798343     -0.055341     -0.325692
Pb      15.14828      3.97105      4.32464         0.094237     -0.587036     -0.707408
Pb      15.18372      3.82123     16.85775        -0.271147     -0.004011     -0.042155
Pb       0.00044      0.11752      4.21518         0.313191     -0.762546     -0.089587
Pb       0.16541     15.19380     16.86983        -0.260572     -0.160180      0.150328
Pb       3.79930      3.69461      8.49730        -0.157315      0.176050     -0.064997
Pb       3.78981     15.16590      8.31371        -0.098379      0.009416      1.106247
Pb      15.07883      3.73961      8.46313        -0.169244     -0.401090      0.404970
Pb      15.17325      0.00280      8.64551         0.047407      0.183005     -0.270633
Pb       3.83671      3.72209     12.71098        -0.142076     -0.057694      0.079946
Pb       3.97198     15.03183     12.71222        -1.128151      0.522934     -0.202446
Pb       0.18453      3.58174     12.84687        -0.700748      0.059584     -0.047110
Pb       0.04410     14.98548     12.64983         0.277009      0.317672      0.595834
Pb       3.66035      7.74263      4.37458         0.152835     -0.121910     -0.584766
Pb       3.82589      7.74467      0.19797         0.020860     -0.493070     -0.237519
Pb      15.14353      7.74120      4.23965         0.257435     -0.205660     -0.142409
Pb       0.14130      7.64338      0.01347         0.139662     -0.242607     -0.226665
Pb       3.72224      7.46603      8.51315         0.559124      0.484349      0.056889
Pb      15.04031      7.61510      8.55458         0.056932     -0.029776      0.011817
Pb       3.73897      7.51125     12.75585         0.457993     -0.185368     -0.467038
Pb      15.13354      7.39895     12.78566        -0.032359      0.050153     -0.233330
Pb       3.60659     11.67086      4.36516         0.066068     -0.914595     -0.767274
Pb       3.91247     11.45793     16.90867        -0.509243     -0.534583      0.532061
Pb      14.95696     11.59988      4.37399         0.564946     -0.284722      0.107356
Pb       0.03407     11.44592     16.84089         0.741800     -0.310633      0.156397
Pb       3.68317     11.43342      8.38613         0.772471     -0.465748      0.334769
Pb      15.06102     11.29624      8.65486        -0.133089      0.060970     -0.339725
Pb       3.73092     11.25372     12.71694         0.156712     -0.036468     -0.161303
Pb      15.12313     11.32474     12.56796         1.289519      0.079850      1.320445
Pb       7.70620      3.85324      4.13497        -0.476612     -0.646153      0.712724
Pb       7.67301      3.86822      0.09487        -0.403181      0.045958     -0.028431
Pb       7.57011      0.04006      4.15153         0.098455     -0.005474      0.484044
Pb       7.56746     15.13616      0.07584         0.316947      0.264022     -0.180294
Pb       7.75048      3.79265      8.23417        -0.754157     -0.150275      0.787432
Pb       7.50971     15.15864      8.45787         0.305744      0.059461     -0.505722
Pb       7.47962      3.68918     12.64681         0.302245      0.662262      0.280674
Pb       7.55231      0.05751     12.70563         0.140759     -0.089684      0.271053
Pb       7.60600      7.63745      4.33188         0.117054     -0.275533     -0.163578
Pb       7.57919      7.51848      0.04987        -0.110053      0.117590      0.193822
Pb       7.61078      7.57776      8.44754        -0.533808     -0.039018     -0.701702
Pb       7.58924      7.46493     12.68692        -0.605622     -0.108627      0.493119
Pb       7.55410     11.40811      4.14487         0.521406     -0.005562      0.411529
Pb       7.55646     11.40981      0.11727         0.245864     -0.312297     -0.450996
Pb       7.47914     11.39055      8.31994         0.207322     -0.136975      0.475936
Pb       7.52234     11.38650     12.71098        -0.202705     -0.592589      0.034819
Pb      11.50469      3.87316      4.03691        -0.093625     -0.944446      0.707440
Pb      11.50180      3.84908     16.95211        -0.040172     -0.596124     -0.559571
Pb      11.47187      0.05478      4.17869        -0.037520     -0.251662     -0.260611
Pb      11.36067     15.15622     16.93105         0.232844      0.128870      0.088903
Pb      11.38642      3.65453      8.39425         0.385634      0.024232      0.267084
Pb      11.21176     15.08536      8.75434         0.612793      0.345338     -0.733789
Pb      11.41138      3.72788     12.68836        -0.266914      0.365019      1.110596
Pb      11.25200      0.06796     12.89126         1.146334     -0.294382      0.152453
Pb      11.49428      7.56696      4.11792         0.131516      0.720246      0.410746
Pb      11.42012      7.64284     16.96824        -0.566690     -0.014370      0.053553
Pb      11.39977      7.61797      8.44982         0.033526     -0.260567     -0.087262
Pb      11.30009      7.47909     12.71498        -0.090329      0.003442     -0.141237
Pb      11.44053     11.57144      4.17718         0.057375     -0.499997      0.392837
Pb      11.45202     11.20888     16.97180        -0.530907      0.598376     -0.521625
Pb      11.16225     11.44484      8.61879         0.459030     -0.268784     -0.005621
Pb      11.26226     11.07688     12.94254         0.097394      0.621871     -0.425169
Ti       1.85418      1.91171      2.17096         0.103305     -0.930757     -0.667091
Ti       1.96588      1.85539     14.96955         0.288556     -0.457476     -0.692187
Ti       1.87385     13.28767      2.12463        -0.563923      0.474285      0.948390
Ti       2.01872     13.28625     14.95687        -1.041417     -0.481060     -0.284385
Ti      13.34171      1.78599      2.03203         0.116792      1.242701      0.316829
Ti      13.33799      1.76568     15.03571        -0.581845      0.977829     -1.362286
Ti      13.34251     13.29226      2.02567         0.722791     -0.001695      1.007669
Ti      13.33533     13.20249     14.89699        -0.030647      0.490958      1.037503
Ti       1.86007      1.91104      6.48889        -0.784518     -0.301413     -0.259822
Ti       1.83747     13.26469      6.50257        -0.685539      0.889730     -0.459197
Ti      13.29641      1.79791      6.36149        -0.245872      0.282095      0.557741
Ti      13.30233     13.28080      6.81751        -0.636185     -0.212338     -1.003112
Ti       1.97733      1.77053     10.81116        -0.560476     -0.183855     -0.752215
Ti       1.97374     13.18401     10.62602        -0.563290      0.737029      0.687898
Ti      13.32672      1.82003     10.97018         0.047227     -0.060510     -1.362919
Ti      13.23182     13.23689     10.85608         0.097737     -0.067465     -0.763730
Ti       1.88588      5.63205      2.23559        -0.531613      0.946183     -1.446645
Ti       1.86117      5.68452     15.00461         0.059388      0.265760      0.467451
Ti      13.32720      5.74046      2.09665         1.410542     -0.742029      0.794100
Ti      13.15795      5.80334     14.96569         1.340135     -4.923754     -0.321543
Ti       1.73853      5.73116      6.63597         1.838762     -0.793815     -1.134040
Ti      13.25381      5.66916      6.39368        -1.144409      0.048843      0.195832
Ti       1.80465      5.60293     10.74467         0.262423     -0.503536     -0.587458
Ti      13.19102      5.54650     10.74624         0.368889      0.663975     -0.654132
Ti       1.89076      9.52586      2.19328         0.914956      0.561645      0.104475
Ti       1.96051      9.46146     14.86143        -0.319815      0.316143      0.464088
Ti      13.39220      9.54757      2.07399        -0.243415     -0.905659      0.185391
Ti      13.37520      9.39759     14.90984         0.214262      0.610645     -0.068721
Ti       1.90301      9.45133      6.56054        -0.558336      0.524770     -0.464359
Ti      13.29060      9.46840      6.54296         0.247537      0.338471     -1.330498
Ti       1.85248      9.37005     10.73087         0.532188      0.202898     -0.132199
Ti      13.24300      9.40853     10.85918        -0.723355     -0.305622     -1.164119
Ti       5.59002      1.91640      2.22795         0.667790      0.922890     -0.041492
Ti       5.69896      1.88373     15.03983        -0.464398      0.234142     -0.240439
Ti       5.67591     13.33723      2.35546        -0.483712     -0.772846     -0.236029
Ti       5.83570     13.28968     14.90082        -1.131620     -0.814746      0.173520
Ti       5.67283      1.94794      6.41474         1.029269     -0.730812      0.288007
Ti       5.71533     13.29518      6.42202         0.267693      0.531492     -0.162268
Ti       5.71148      1.83084     10.59509        -0.645527      0.039391      0.272139
Ti       5.69862     13.21331     10.74762        -0.845000     -0.055866     -1.600901
Ti       5.65910      5.73702      2.43255         0.434441      0.054630     -1.603705
Ti       5.62842      5.67568     15.14845         0.863359      0.202678     -0.778118
Ti       5.63900      5.71926      6.42616         0.757296      0.247478      0.793084
Ti       5.62626      5.61162     10.61802        -0.601850      1.053357     -0.912364
Ti       5.74930      9.55471      2.36658        -1.066766     -0.498886      0.088727
Ti       5.67278      9.42278     14.95526        -0.025126      0.073950     -0.853330
Ti       5.73622      9.52239      6.35900        -0.954113     -0.884794      1.070045
Ti       5.65430      9.41519     10.59151        -0.555486      0.034751      0.076967
Ti       9.46955      1.88057      2.23278         0.699289     -0.386716     -0.274648
Ti       9.42554      1.83370     15.01612         1.084973      0.613450      0.776859
Ti       9.55981     13.33199      2.18575        -0.077528     -0.894795      0.064432
Ti       9.53259     13.27149     15.01766        -0.156674     -1.038978      0.336394
Ti       9.58567      1.82904      6.32233        -0.566337     -0.077189      0.167915
Ti       9.54014     13.25175      6.44230         0.023911      0.877552      1.475985
Ti       9.52980      1.89343     10.70370        -0.112677     -0.245793     -0.312647
Ti       9.43289     13.28408     10.89615         0.819586     -0.239017     -0.820107
Ti       9.56031      5.73334      2.23359        -0.559672      0.345332     -0.408324
Ti       9.46063      5.65797     14.95894        -0.457063     -0.173395     -1.038603
Ti       9.50493      5.66916      6.34866        -0.123035      0.059211      1.164566
Ti       9.36193      5.67988     10.63032         0.091886     -0.368042      0.531894
Ti       9.61258      9.55465      2.21357        -1.404842     -0.690125     -0.412420
Ti       9.40655      9.40055     15.02357         0.202772      0.362215      0.778771
Ti       9.53103      9.47033      6.32906        -1.072710      0.003858      0.379758
Ti       9.32522      9.46770     10.68909         1.051797     -0.392338     -0.206000
O       1.93583      1.79717      0.35058        -0.171164      0.653680      0.623412
O       2.08948      1.84147     13.13623        -0.386559     -0.171906      0.864912
O       1.79803     13.34471      0.32365         0.276249     -0.394118      0.549112
O       1.96381     13.30767     13.16947         0.203651     -0.103976      0.491418
O      13.43633      1.87204      0.22249        -0.439485     -0.281610      1.259671
O      13.28837      1.73688     13.17232        -0.104915      0.366803      0.474448
O      13.44279     13.28269      0.29519        -0.274356     -0.107978      0.053224
O      13.25784     13.12445     13.14339         0.253854      0.152562     -0.817152
O       1.75013      1.91937      4.68882         0.469763      0.045475      0.327243
O       1.79395     13.28892      4.66893         0.259742     -0.119040      1.614048
O      13.47557      1.85307      4.58565        -0.883341     -0.116643      0.258997
O      13.17966     13.13738      5.01241         0.050267      0.333964     -0.791818
O       1.87014      1.82115      9.01490        -0.151076      0.075471     -0.534658
O       1.88211     13.37855      8.85219         0.368222     -0.672066     -0.148460
O      13.12947      1.91770      9.14594         0.769800      0.216644      0.322474
O      13.28193     13.11109      9.01648         0.045487      0.388966     -0.087959
O       1.84051      5.57878      0.33400         0.320686      0.171570      1.769791
O       1.86171      5.71231     13.21023        -0.035168     -0.059239     -0.057474
O      13.23875      5.73427      0.33324        -0.010760     -0.123220     -0.089719
O      13.17682      5.70403     13.20145         0.078412      0.224775     -1.086271
O       1.84885      5.57918      4.77069        -0.064419      0.414439      0.700423
O      13.31165      5.73126      4.57395        -0.028515     -0.018657      1.008713
O       1.80454      5.67644      8.92999         0.121482     -0.357048     -0.033235
O      13.21531      5.52004      8.90529         0.072400      0.317581      1.390227
O       1.83010      9.55031      0.39726         0.467759     -0.439989      0.553345
O       1.93335      9.40826     13.06268         0.108876     -0.272305      0.299141
O      13.41302      9.28408      0.25562        -0.380244      0.820488      1.332345
O      13.34718      9.35119     13.05724        -0.386309      0.375924      1.328025
O       1.85737      9.39997      4.74126        -0.073807      0.029247      0.672186
O      13.43067      9.26208      4.68768        -0.747571      0.971067      0.699806
O       1.83480      9.46895      8.93905         0.044806     -0.070979      0.009156
O      13.25571      9.44187      8.97848        -0.134381     -0.291206      0.529226
O       5.57735      1.84759      0.40634         0.541402     -0.013984      0.972204
O       5.55713      1.95334     13.20054         0.670308     -0.404587      0.894120
O       5.63260     13.24808      0.53774         0.390628     -0.184307      0.624357
O       5.80512     13.32141     13.08914        -0.287572     -0.299523      0.882046
O       5.65779      1.78763      4.63624        -0.110477      0.218393      0.189329
O       5.73428     13.38153      4.62983        -0.262030      0.152009      0.084739
O       5.59963      1.80659      8.83121         0.472924      0.355586      0.363025
O       5.62273     13.24508      8.91585         0.506625     -0.145677      0.399606
O       5.67262      5.76901      0.52208         0.211389     -0.185363      1.243297
O       5.69388      5.73506     13.32331        -0.145449     -0.272858      0.735741
O       5.69181      5.68856      4.64552         0.002238     -0.233387     -0.416471
O       5.68984      5.61204      8.81154        -0.275527      0.079559      0.722176
O       5.47325      9.55699      0.58673         0.688855      0.064746     -0.231229
O       5.52247      9.39637     13.13761         0.705699     -0.093517      1.242732
O       5.78731      9.40381      4.59692        -0.071094      0.406089     -0.494549
O       5.71680      9.51095      8.79400        -0.074977      0.012243      0.843227
O       9.42268      1.66924      0.45223        -0.034140      0.734484     -0.084107
O       9.56222      1.71939     13.23688        -0.535967      0.616548      0.357382
O       9.53767     13.27953      0.40911        -0.377620     -0.041282      0.391918
O       9.44036     13.24060     13.20961         0.215437     -0.184173      0.091676
O       9.55907      1.87828      4.50055         0.001064     -0.471900      1.116170
O       9.72100     13.30686      4.72334        -0.134731      0.006696     -1.179541
O       9.62372      1.90484      8.91076        -0.151895     -0.436939      0.733380
O       9.52513     13.30680      9.04774        -0.474146     -0.006684      1.338932
O       9.47507      5.70924      0.42792         0.278017     -0.107536      0.627524
O       9.36797      5.60576     13.12492         0.043856      0.203801      0.867618
O       9.60748      5.58655      4.61837        -0.046906      0.353937     -1.078338
O       9.26548      5.78142      8.83379         0.832841     -0.263893      1.147650
O       9.60098      9.47474      0.39193        -0.002871      0.059890      0.157114
O       9.49208      9.48780     13.24530        -0.140780      0.067812     -0.338948
O       9.32929      9.57982      4.55534         0.714286     -0.364775      0.710344
O       9.43846      9.41881      8.88803        -0.090774     -0.181912      0.347185
O       3.74782      1.88372      2.60385        -0.135587      0.359458      0.077115
O       3.81777      1.86082     15.44307         0.307708      0.284396     -0.355285
O       3.69098     13.40547      2.76222         0.692873     -0.283155     -0.544197
O       3.84137     13.16739     15.35292         0.770146      0.264653     -0.663903
O       0.00685      1.80216      2.46441        -1.213911      0.606290     -0.111882
O       0.01692      1.86447     15.16275         0.939313     -0.144967      0.274288
O       0.03116     13.23186      2.78602        -1.398623      0.193638     -1.380173
O       0.00097     13.29711     15.27505         0.265090     -0.012889     -0.363208
O       3.78751      1.89028      6.92266        -0.291140     -0.021000     -1.059388
O       3.78251     13.36358      6.76953        -0.113170     -0.559774     -0.368276
O      15.08476      1.99618      6.86069         1.120844     -0.386234      0.274965
O      15.19488     13.27360      6.93508         0.384558     -0.104185      0.175038
O       3.80389      1.90625     11.07931         1.735482      0.079609     -0.197085
O       3.80004     13.09278     11.10404         0.589841      0.293923     -0.075610
O       0.06206      1.70332     11.23650        -0.247631      0.294580     -0.203147
O       0.06536     13.29425     10.98224        -0.131147     -0.202645      0.358830
O       3.78789      5.68086      2.72993        -0.533422      0.050216     -0.382334
O       3.82856      5.63483     15.45791        -1.044092     -0.409638     -0.347618
O       0.00177      5.64117      2.57799        -0.131549      0.174979     -0.260004
O      15.13860      5.73919     15.30109         1.104680      0.209664     -0.163877
O       3.79070      5.77139      6.80333        -0.881297     -0.561552      0.102542
O      15.10819      5.72679      6.78793         0.233118     -0.535835      0.232815
O       3.70789      5.53480     11.13332         0.698760      0.162826     -0.479293
O      15.09260      5.73353     11.08189         0.290118     -0.182077     -0.061729
O       3.76936      9.38862      2.65877        -0.061043      0.115692      0.023822
O       3.81361      9.74200     15.23434        -0.139122     -1.032616      0.278807
O       0.03043      9.51337      2.50939        -1.180290     -0.144946      0.156602
O       0.07159      9.32457     15.28672        -1.087232     -0.170353     -0.397547
O       3.81697      9.41724      6.79655        -0.691898      0.219497     -0.037116
O      15.14027      9.45042      6.84591         1.243165     -0.186408      0.495611
O       3.79584      9.49623     10.98309        -0.213643     -0.171154      0.036031
O      15.14292      9.34372     11.07168         0.680699     -0.528974     -0.102426
O       7.57656      1.82319      2.56177        -0.747777      0.270234     -0.115351
O       7.58790      1.69739     15.24864        -0.289438      0.072940      0.255664
O       7.64420     13.28544      2.59254        -1.177055      0.006040     -0.227502
O       7.61657     13.41508     15.39427         0.032375     -0.965374     -0.036590
O       7.66931      1.92915      6.79482        -0.674548     -0.452428     -0.460630
O       7.64589     13.24463      6.83313        -0.630346      0.340540     -0.208374
O       7.59701      1.66330     10.98915        -0.251902      0.642225      0.030167
O       7.55423     13.37912     11.21133         1.114997     -0.410576     -0.519660
O       7.74624      5.56982      2.68450        -1.002875      0.878477     -0.638635
O       7.64295      5.81119     15.36814        -1.341949     -0.120194      0.570416
O       7.58663      5.60112      6.79376        -0.151752     -0.282655     -0.607267
O       7.44957      5.61448     11.10769         1.571278      0.434241     -0.094027
O       7.63991      9.71898      2.37490        -0.799306     -0.303367      0.365881
O       7.57564      9.21517     15.29698        -0.376593      0.787931      0.084150
O       7.52134      9.56281      6.71290         1.605936      0.082610      0.284954
O       7.50473      9.34788     11.17385         0.123018      0.423167     -0.436427
O      11.40225      1.81163      2.41985         0.618898     -0.389014      0.087802
O      11.44902      1.81361     15.33573        -1.559156      0.333588      0.207753
O      11.45755     13.36291      2.49210         0.121485     -0.346358      0.208556
O      11.37516     13.21035     15.44032         0.542513     -0.309354     -0.618928
O      11.42284      1.83950      6.76081        -0.234817     -0.151468     -0.213323
O      11.37085     13.22401      7.10231        -0.326683      0.249971     -0.295357
O      11.41013      1.92585     11.19389        -0.793371     -0.402631     -0.030968
O      11.41989     13.26601     11.07823        -1.298830     -0.675060      0.166189
O      11.54433      5.75300      2.60086        -2.240302     -0.277002     -0.392593
O      11.30921      5.55241     15.23340         0.179187      0.062918      0.621521
O      11.37741      5.82961      6.74770        -0.153519     -0.007709      0.110480
O      11.22201      5.53163     11.05746         0.607000      0.016657     -0.315861
O      11.43197      9.53270      2.49818         1.305708     -0.327721     -0.021442
O      11.48263      9.49867     15.32604        -0.277481      0.121927     -0.375924
O      11.36725      9.30102      6.71002        -0.789864      0.380741      0.068364
O      11.33003      9.54513     11.20811        -0.191712     -0.154169     -0.432199
O       1.80575      3.75808      2.57693         0.539321      0.561955      0.155489
O       1.87163      3.74032     15.20113         0.159966      0.614264      0.377978
O       1.73133      0.01263      2.53506         0.869438     -0.208317      0.088505
O       1.99558     15.16371     15.38560        -0.115435     -0.047353     -0.620111
O      13.23339      3.74263      2.52262         0.569967     -0.009138     -0.865482
O      13.31258      3.82285     15.38366        -0.158306     -0.699624     -0.109981
O      13.35361     15.10690      2.52783        -0.062442      0.787180     -0.126872
O      13.28035     15.10784     15.20525        -0.064270     -0.367221      0.302586
O       1.84487      3.77102      6.82102         0.249790      0.803387      0.517102
O       1.86479      0.05188      6.79531        -0.313194     -0.651647      0.014455
O      13.14449      3.75951      6.82345         0.622360      0.517223     -0.552221
O      13.34310     15.16642      6.89736        -0.202195      0.548331      0.130080
O       1.83061      3.66004     11.07576        -0.282650      1.430549      0.273266
O       2.10659     15.05764     11.02712        -0.427670      0.158776      0.327700
O      13.36018      3.71705     11.34701         0.034290      0.939375     -0.695721
O      13.33980     15.12444     11.04611        -0.267894     -0.501267      0.335737
O       1.90086      7.55739      2.51241        -0.292256     -0.195041     -0.028992
O       2.02784      7.59366     15.36345         0.172387     -0.154733     -0.171252
O      13.28532      7.60256      2.48650         0.394971      0.853270     -0.124819
O      13.16780      7.49202     15.26100         0.194170      3.930467      0.338022
O       1.87303      7.58370      7.03779        -0.406800     -0.128686     -0.673758
O      13.33300      7.56656      6.85741        -0.243963     -0.630065      0.428001
O       1.99573      7.46116     11.04664        -0.393783      0.867325      0.087246
O      13.06416      7.49495     11.09175         0.321301     -0.468405     -0.357414
O       1.91097     11.45514      2.51846         0.377917     -0.975686      0.105201
O       1.80363     11.31505     15.26860        -0.031679      0.914335     -0.130064
O      13.24637     11.41271      2.59720         0.391905     -0.212904     -0.538933
O      13.41027     11.29596     15.35946        -0.441097     -0.158027     -0.689092
O       1.86892     11.38434      6.88085         0.191751     -0.233173     -0.339743
O      13.32882     11.32067      6.90581        -0.352249     -0.375439      0.302850
O       1.88542     11.28026     11.14112        -0.374015      0.300900     -0.634298
O      13.49150     11.30383     11.08055        -1.203071      0.246254     -0.459927
O       5.70478      3.87659      2.62278         0.000439     -1.810771     -0.097252
O       5.81531      3.72128     15.53865        -0.109976      0.548366     -0.642456
O       5.48440      0.01702      2.50686         1.113462     -0.172961      0.277586
O       5.66770     15.08252     15.37109        -0.344625      0.969434     -0.169879
O       5.62719      3.76254      6.76999        -0.059683      0.019042     -0.122119
O       5.76885     15.14199      6.82747        -0.153847      0.951947     -0.091585
O       5.72064      3.78169     11.00172        -0.036481     -1.712424      0.224732
O       5.67664     15.12378     10.95142        -0.545523      0.804398      0.489773
O       5.88661      7.60596      2.74174        -0.441408      0.178900     -0.770435
O       5.58626      7.61750     15.61700        -0.226479     -0.039255     -0.867368
O       5.75458      7.57534      6.68365         0.093792      0.314752      0.260137
O       5.61412      7.50944     10.89799        -0.137111      0.225547      0.323416
O       5.56569     11.43355      2.84034         0.107538      0.308699     -0.811279
O       5.81237     11.33238     15.38041         0.600565      0.653085     -0.209538
O       5.66348     11.43438      6.69690        -0.327298     -0.322809      0.150821
O       5.72006     11.35948     11.04930         0.674209     -0.706482      0.170707
O       9.56347      3.78031      2.60443         0.288336     -0.139509     -0.790553
O       9.31257      3.77020     15.44167         0.593342     -1.003716     -0.429055
O       9.42872     15.12496      2.64818         0.550780      0.807780     -0.172321
O       9.48474     15.11142     15.50285         0.457723      0.572896     -0.855638
O       9.57378      3.75840      6.74393         0.080262     -0.080533     -0.076829
O       9.50888     15.18335      6.91816         0.029969     -0.127978     -0.482852
O       9.32723      3.68280     11.07358         0.068427      0.997534     -0.195187
O       9.61853     15.18514     11.27871        -0.661521     -0.585837     -1.080848
O       9.45475      7.63786      2.53906         0.332681     -0.598577      0.193556
O       9.58262      7.56469     15.33144         0.456372     -0.480926      0.049938
O       9.21947      7.54081      6.65165         0.808296      1.324891     -0.006846
O       9.43249      7.59264     11.11559         0.177673     -1.329081     -0.429141
O       9.52722     11.38288      2.58727         0.431526      1.660751     -0.069904
O       9.40915     11.29639     15.45469         0.057895      0.871009     -0.410162
O       9.44798     11.39649      6.87315         0.635753     -1.145467     -0.347392
O       9.34163     11.27252     11.01030         0.089311      2.062170      0.633467
