  # total energy = -7880.72093952 
CRSYTAL
PRIMVEC
    15.3600000000000000    0.0000000000000000    0.0000000000000000
     0.0000000000000000   15.3600000000000000    0.0000000000000000
     0.0000000000000000    0.0000000000000000    17.440000000000000
PRESSURE
0.673791 0.89261 1.27389 -0.213173 -0.33926 -0.026487
PRIMCOORD
320 1
Pb       3.86803      3.80630      4.29555        -0.335237      0.184259     -0.603505
Pb       3.76179      3.87604     17.41892        -0.278623     -0.289003     -0.548254
Pb       3.85868     15.33770      4.29609         0.110585     -0.277722     -0.465340
Pb       3.89742     15.29113      0.02002        -0.280184      0.351724     -1.062562
Pb      15.34650      3.87520      4.31691        -0.214558     -0.220944     -0.748185
Pb      15.23939      3.74386     17.35134         0.089342     -0.215910     -0.113014
Pb      15.33021      0.01645      4.40504        -0.202339     -0.385182     -1.010405
Pb       0.16150      0.04737     17.37387        -0.493401     -0.329513      0.032600
Pb       3.94847      3.84638      8.65212        -0.679708      0.035675     -0.150650
Pb       3.81760     15.31626      8.62185        -0.173240      0.025114     -0.407540
Pb       0.14977      3.77569      8.72955         0.172167      0.263869     -0.489888
Pb       0.07063     15.28798      8.66632         0.131017     -0.018400     -0.521665
Pb       3.90147      3.91557     13.11576        -0.551921     -0.599921     -0.539259
Pb       3.98596      0.08297     13.16350        -0.253693     -0.101778     -0.073098
Pb      15.32681      3.87669     12.97091         0.632403     -0.185335     -0.188897
Pb      15.32911     15.33288     13.08072        -0.054464     -0.078920     -0.362040
Pb       3.78159      7.64512      4.36605        -0.124647      0.250041     -0.493337
Pb       3.89567      7.73487     17.41481        -0.273830     -0.123270     -0.673791
Pb      15.20127      7.58869      4.33074         0.371817     -0.096305     -0.605494
Pb       0.14723      7.57870      0.01883        -0.382476      0.279938     -0.367094
Pb       3.74476      7.68843      8.62392        -0.282039     -0.287301     -0.488725
Pb      15.31748      7.73876      8.64068         0.446513     -0.599059     -0.401161
Pb       3.88025      7.74673     13.06985         0.263880      0.000521     -0.543686
Pb      15.25941      7.71072     12.96838         0.498319     -0.368941      0.126981
Pb       3.92672     11.44059      4.41606        -0.539942     -0.192737     -0.619077
Pb       3.67881     11.54402      0.02313         0.088116     -0.121032     -0.546233
Pb      15.28026     11.36611      4.40356         0.307599      0.404761     -0.726329
Pb       0.06129     11.43153      0.06369        -0.327017      0.235850     -0.378619
Pb       3.84227     11.45151      8.64893        -0.058537      0.053302     -0.509704
Pb       0.05031     11.63480      8.65917         0.045689      0.230359     -0.409843
Pb       3.75515     11.55722     13.06285         0.379344     -0.127490     -0.387349
Pb      15.21684     11.47582     12.95411        -0.059601      0.180183      0.305316
Pb       7.58048      3.93242      4.23829         0.164415     -0.527287      0.230373
Pb       7.63685      3.79522      0.03859        -0.069890     -0.343943     -0.741695
Pb       7.56568     15.27259      4.35957        -0.131094      0.116992     -0.947655
Pb       7.82727     15.27137      0.01968        -0.564212      0.578983     -0.504076
Pb       7.67682      3.85938      8.63801        -0.002345     -0.286432     -0.198488
Pb       7.69117      0.11196      8.72453        -0.524079     -0.131254     -0.297462
Pb       7.59198      3.71034     12.99480        -0.151352      0.136146     -0.360342
Pb       7.66421     15.19567     13.12768         0.166371      0.227399     -0.320487
Pb       7.67459      7.77675      4.39895         0.194256     -0.833222     -0.284443
Pb       7.65929      7.63015     17.39303         0.406868      0.155007     -1.091975
Pb       7.72492      7.54018      8.74843        -0.105579      0.148003     -0.320474
Pb       7.78828      7.68586     13.13763        -0.727550      0.032258     -0.766584
Pb       7.63699     11.47918      4.34038         0.135374      0.703684     -0.147859
Pb       7.67086     11.43043     17.34849         0.054189     -0.117883     -0.259017
Pb       7.70211     11.53571      8.77863        -0.012492     -0.105446     -0.973801
Pb       7.55041     11.49143     13.04709         0.511959     -0.186602     -0.707511
Pb      11.54934      3.92393      4.34331        -0.238394      0.287003     -0.418314
Pb      11.40308      3.80374     17.39974         0.135076      0.312682      0.146531
Pb      11.55980      0.06807      4.41424         0.054721     -0.473425     -0.801625
Pb      11.59762      0.05655     17.42573         0.110432     -0.428176      0.099003
Pb      11.63110      3.66669      8.68339        -0.501305      0.763577     -0.286189
Pb      11.52367      0.08254      8.71193         0.130642     -0.604460     -0.066703
Pb      11.45658      3.85437     12.91598        -0.083436      0.158954     -0.043738
Pb      11.47444     15.34217     13.13400        -0.082252     -0.368340     -0.767150
Pb      11.53067      7.64415      4.44008        -0.265188     -0.493457     -0.849967
Pb      11.45661      7.73340     17.33954        -0.107921     -0.249286      0.141251
Pb      11.51994      7.65141      8.68840        -0.170053     -0.501295     -0.728992
Pb      11.59503      7.63162     13.12452        -0.407282     -0.138181     -0.563158
Pb      11.43222     11.56290      4.33131         0.438959      0.087497     -0.634504
Pb      11.56098     11.52877     17.41492         0.309257      0.030687     -0.327527
Pb      11.44860     11.52595      8.69771        -0.105996     -0.059684     -0.430651
Pb      11.48375     11.58166     13.11616        -0.281819      0.174162     -0.461691
Ti       1.80391      1.90954      2.36976        -0.185227     -0.188918      0.503628
Ti       1.83933      1.89947     15.31983         0.422550     -0.013522     -0.536973
Ti       1.89422     13.41564      2.42497        -0.652581     -0.379961      0.537962
Ti       1.82610     13.39212     15.23685         0.788623      0.370059      1.521306
Ti      13.31464      1.86729      2.30404         1.137134      0.412240     -0.023410
Ti      13.19603      1.85721     15.38710         3.130339      0.330998      2.151429
Ti      13.41681     13.36959      2.33772         0.559617      0.058714     -0.017724
Ti      13.49018     13.41632     15.42269        -0.019975     -0.553268      0.625972
Ti       1.86108      1.83955      6.47583        -0.009248      0.361367     -0.046286
Ti       1.95023     13.36043      6.49457        -0.164447      0.627306      2.123278
Ti      13.40945      1.89211      6.59022         1.004700      0.048509      1.590357
Ti      13.28807     13.41723      6.66590         1.851576      0.036332     -1.030103
Ti       1.82479      1.85476     11.07600         0.995817      0.861947      0.793095
Ti       1.88409     13.44047     11.12975        -0.155769      0.101305     -0.963823
Ti      13.34962      1.90190     10.98621         0.734720     -0.841906      1.349983
Ti      13.36271     13.41257     10.97119         0.187825      0.257562      0.841389
Ti       1.86533      5.74465      2.33300         0.236236     -0.650395     -0.208432
Ti       1.81236      5.71156     15.39070         0.309657      0.121075      0.045770
Ti      13.34904      5.65990      2.11022         0.209302      0.223554      2.606976
Ti      13.35016      5.77207     15.34836         0.497761     -0.394517      0.581410
Ti       1.90787      5.59415      6.49555        -0.315561      1.478915      2.568042
Ti      13.42438      5.73390      6.71871        -0.085822     -0.161594     -0.337560
Ti       1.90873      5.78349     11.03175         0.213777     -1.630893     -0.972844
Ti      13.39638      5.76677     10.92576         0.011858     -0.469422      0.474319
Ti       1.89986      9.58564      2.33808         0.398283     -0.263571      1.354573
Ti       1.90925      9.58463     15.39105         0.044391     -0.385430      1.756916
Ti      13.37704      9.46329      2.36551         0.431564      0.818207      0.404145
Ti      13.50450      9.55808     15.37623         0.280262      1.160670      1.578969
Ti       1.79484      9.59751      6.68484         1.522242     -0.929537     -0.388571
Ti      13.35299      9.60665      6.62543         0.584688     -0.703388     -0.215697
Ti       1.84354      9.63071     11.02169         0.761691     -0.974671     -0.582413
Ti      13.27755      9.53547     10.94709         1.252207      0.861986      0.177486
Ti       5.61103      1.88490      2.26516         1.372989     -0.187439      0.252964
Ti       5.68207      1.96090     15.36562         0.428349     -0.907981      0.281842
Ti       5.65592     13.37505      2.12125         0.865905      0.426113      1.609712
Ti       5.71531     13.35212     15.45713        -0.606563      1.318881     -0.725850
Ti       5.65855      1.88750      6.55446         0.371264     -0.170654      1.577367
Ti       5.75715     13.43994      6.70265         0.251352     -0.437347     -0.157695
Ti       5.65220      1.82327     11.00644         0.281249      0.387852      1.025492
Ti       5.73749     13.37562     10.95459        -0.128458      0.343361      1.915965
Ti       5.76496      5.81388      2.24832        -0.723758     -0.638979      2.375552
Ti       5.71636      5.68723     15.38531         0.642729      0.895846     -0.119887
Ti       5.73745      5.76099      6.59207        -0.489805     -0.970110      0.901048
Ti       5.71606      5.67870     10.97978         0.436541      0.823802      0.541263
Ti       5.80478      9.52742      2.28655        -1.962690      0.665231     -0.401126
Ti       5.73563      9.64291     15.33093         0.196545     -1.309162      0.091373
Ti       5.81014      9.56861      6.73905        -0.909993      0.084961      1.172521
Ti       5.69683      9.57106     10.95531         1.075969     -0.353450      1.645808
Ti       9.51999      1.92425      2.43246        -0.381318      0.356539      0.398582
Ti       9.60678      1.86522     15.26170        -2.379660     -0.124380      0.748535
Ti       9.58061     13.50990      2.23417        -0.243030     -0.342800      0.649491
Ti       9.59948     13.35676     15.45315        -0.113204      0.625676     -0.028048
Ti       9.54618      1.79784      6.63439        -0.794735      1.295020     -0.163811
Ti       9.57669     13.46455      6.63280        -1.106357     -1.605313      1.798609
Ti       9.58066      1.86062     11.00388        -0.986412      0.313507      1.997352
Ti       9.56774     13.43065     10.93380         0.285260     -0.852768      1.709969
Ti       9.56519      5.75772      2.26048         0.610782      0.296358     -0.213579
Ti       9.57786      5.61809     15.24253        -0.484984      1.371245      0.842659
Ti       9.52729      5.67472      6.67941         0.940476      0.303978     -0.306649
Ti       9.49975      5.71574     11.01790        -0.114419      0.154251     -0.388879
Ti       9.57406      9.64912      2.30269         0.955270     -1.128008      0.658660
Ti       9.68714      9.53957     15.30878        -1.356932      0.355967      2.788612
Ti       9.61897      9.54186      6.55236        -1.111723      0.744034      2.000476
Ti       9.61658      9.56819     10.94301        -1.954254      0.223179      1.197483
O       1.80749      1.93624      0.63299         0.286020      0.032522     -1.704548
O       1.81012      1.93220     13.52780        -0.260123     -0.220008      0.839499
O       1.81226     13.34389      0.68675         0.247576     -0.204367     -1.010982
O       1.70327     13.44424     13.50670         0.360726     -0.371034     -1.322332
O      13.29370      1.90352      0.53095        -0.331228     -0.297711     -0.563590
O      13.15666      1.76815     13.72512         0.239896     -0.084426     -3.403309
O      13.55471     13.42150      0.58092        -0.464992     -0.125763     -0.428739
O      13.52881     13.27938     13.69313        -0.301791      0.598273     -1.647246
O       1.70066      1.84466      4.66370         0.369997     -0.077572      1.175738
O       1.98323     13.33449      4.79627        -0.163829      0.250309     -1.594720
O      13.42472      1.94791      4.87076        -0.066020     -0.230700     -1.232261
O      13.25722     13.42137      4.88068        -0.069177      0.272621      0.401589
O       1.89736      1.97967      9.34006        -0.123433     -0.359474     -1.257017
O       1.73209     13.40745      9.30862         0.422294     -0.128294      0.481733
O      13.26667      1.87725      9.26541         0.095301     -0.046289     -1.388305
O      13.36316     13.30685      9.23068         0.045957      0.070148     -1.237891
O       1.88041      5.77423      0.55041        -0.037382     -0.052149     -0.468841
O       1.63919      5.66609     13.64953         0.445624      0.218793     -0.754099
O      13.35607      5.60678      0.42075        -0.079786      0.403422     -2.276391
O      13.37984      5.96095     13.58322         0.063550     -0.609298     -0.209637
O       1.82805      5.63363      4.79781         0.009539      0.068467     -1.998089
O      13.27904      5.70479      4.93281         0.345458      0.017050     -0.129955
O       1.88082      5.65083      9.23230         0.191147     -0.024299      0.506902
O      13.44676      5.72694      9.19350        -0.335730      0.123504     -0.750881
O       1.87939      9.62084      0.57185         0.127721     -0.331708     -0.616292
O       1.91852      9.57188     13.71170         0.112698     -0.018992     -3.099107
O      13.55102      9.47976      0.65813        -0.234690      0.401990     -1.565766
O      13.42149      9.50535     13.65896        -0.105440      0.087822     -1.786191
O       1.92725      9.66035      4.93542        -0.197754     -0.385947     -0.114946
O      13.33381      9.42222      4.83779         0.092819      0.171519     -0.098889
O       1.90201      9.50781      9.21671        -0.383523      0.493628      0.855868
O      13.36811      9.54210      9.19592        -0.218422     -0.031711     -0.162735
O       5.80643      1.88402      0.51304        -0.649377      0.113811     -0.320377
O       5.62265      2.06804     13.57984         0.249657     -0.502923     -0.408089
O       5.66039     13.51208      0.37201        -0.184761      0.053195     -0.629657
O       5.80733     13.34112     13.63841        -0.021758     -0.123020      0.578326
O       5.62437      1.90134      4.81843         0.140906     -0.106808     -0.572957
O       5.76912     13.53203      4.93818        -0.010667     -0.501350     -0.498282
O       5.66632      1.62768      9.25733        -0.074133      0.540522     -0.026411
O       5.67941     13.39421      9.25010         0.132043      0.278798     -1.793260
O       5.81353      5.79656      0.53740         0.096018      0.158878     -1.869954
O       5.79973      5.64676     13.62079        -0.306160     -0.068260     -0.007997
O       5.86411      5.73329      4.86421        -0.640321      0.151175     -0.842832
O       5.70869      5.75870      9.23035         0.023280     -0.527936     -0.780161
O       5.79472      9.49252      0.52008         0.067424     -0.382344     -0.048746
O       5.71125      9.52597     13.55887        -0.122145      0.766755     -0.127233
O       5.69768      9.55519      5.01358        -0.008258      0.053220     -1.578402
O       5.68993      9.68288      9.23983        -0.000249     -0.291132     -1.672179
O       9.72746      2.04248      0.70370        -0.359324     -0.355602     -1.218217
O       9.58352      1.66943     13.53871         0.313187      0.543479     -0.752284
O       9.63528     13.44329      0.45804        -0.198318      0.141257     -0.090617
O       9.50624     13.50286     13.70466         0.005792     -0.342719     -0.556402
O       9.34559      1.86651      4.88307         0.832143     -0.476484      0.333292
O       9.50297     13.50772      4.93016         0.129499      0.237430     -1.817877
O       9.51697      1.78475      9.28751         0.509768      0.255409     -1.678763
O       9.69330     13.17236      9.21075        -0.298656      0.249783     -0.815763
O       9.70025      5.68055      0.45401        -0.629963      0.093203      0.887710
O       9.61094      5.65655     13.48047        -0.145076      0.537707     -0.449499
O       9.58430      5.76566      4.92585        -0.086854     -0.263171     -0.284784
O       9.38698      5.75005      9.20847         0.323598      0.120577     -0.334483
O       9.62692      9.54588      0.56190        -0.334548      0.437820     -0.311972
O       9.63628      9.51336     13.63677         0.091910      0.008847     -2.642055
O       9.54517      9.61575      4.82249         0.149308     -0.202584     -1.155197
O       9.48594      9.60920      9.16888         0.605033      0.050208      0.233066
O       3.72458      1.78879      2.71815         0.528645      0.704428      0.077019
O       3.82557      2.03848     15.68031        -1.034322     -0.188626      0.667095
O       3.81695     13.43808      2.69128        -0.382010     -0.036747      0.072351
O       3.72275     13.40840     15.70364         0.535650     -0.316751      0.325846
O      15.24531      2.01254      2.63268        -0.326725     -0.459003      0.506114
O      15.27195      1.84380     15.80038         0.820831      0.466033     -0.235113
O      15.29502     13.25043      2.85689        -0.175109      0.395991      0.082781
O       0.03683     13.56684     15.73028        -0.151184     -0.426614      0.389341
O       3.76347      1.80781      6.94580         0.158808      0.217562      0.092192
O       3.83289     13.37628      6.99207        -0.322447      0.564709      0.374606
O       0.00966      1.82771      7.02494        -0.412008      0.144135      0.025113
O      15.35753     13.34917      6.95339        -0.235185      0.178867      0.389511
O       3.71892      1.88549     11.46674         1.311366     -0.507113     -0.038522
O       3.84654     13.41355     11.43723        -0.698285     -0.197484      0.075693
O      15.32324      1.88859     11.37058        -1.761451     -0.162871      0.334629
O      15.29836     13.48760     11.35821        -1.187966     -0.746931      0.377366
O       3.73901      5.85097      2.62460         1.286584     -0.445287      0.346017
O       3.85877      5.72318     15.80174        -0.087808      0.194040      0.021343
O      15.22249      5.68935      2.60271         0.376976     -0.215447      0.383210
O      15.29486      5.69535     15.81358        -0.535592     -0.020972      0.103501
O       3.80266      5.57358      6.92983         0.050023      0.189716      0.111061
O      15.33515      5.63246      6.95422        -0.108421      0.100131      0.243230
O       3.87993      5.56549     11.36835        -1.180703      0.694163      0.390872
O      15.31512      5.83141     11.21688        -0.498922     -0.393090      0.889952
O       3.84793      9.56076      2.69818        -0.205943     -0.673390      0.322540
O       3.80029      9.63976     15.78678         0.609833     -0.588559      0.381187
O       0.03760      9.56322      2.77365        -1.305861     -0.181924      0.292067
O       0.08682      9.59687     15.79974        -1.562371     -0.258806      0.275020
O       3.70945      9.57091      7.12780         0.924427     -0.336574      0.256471
O      15.26355      9.58700      7.05846         0.475893      0.035774      0.107290
O       3.83163      9.63429     11.45708        -0.886333      0.203800      0.108177
O      15.32726      9.51850     11.39915        -0.209609      0.096978     -0.232875
O       7.51945      1.96453      2.68967         0.256420     -0.118016      0.055801
O       7.57938      1.90223     15.71881         1.716829      0.062183      0.313577
O       7.59099     13.45981      2.59306        -0.267914     -0.295292      0.089543
O       7.60059     13.42260     15.85584         0.218052      0.056837      0.145597
O       7.63706      1.92381      7.11742         0.244273     -0.894777     -0.104054
O       7.68356     13.35756      7.04749        -0.448831      0.389879      0.447892
O       7.69882      1.91607     11.42530        -0.759784     -0.316782     -0.140494
O       7.72338     13.25655     11.34904        -0.683359      0.788751      0.077109
O       7.65789      5.84053      2.78930        -0.261497     -0.423541     -0.788443
O       7.74890      5.70979     15.79350        -0.612144      0.117253      0.143742
O       7.61102      5.65982      7.00702         0.335557     -0.190129      0.510933
O       7.59362      5.65463     11.33201        -0.084378     -0.041962      0.543137
O       7.60853      9.60902      2.74129         0.717811      0.126684      0.162662
O       7.67266      9.68110     15.72375        -0.234586     -0.082904      0.166800
O       7.63248      9.56023      6.94288         0.320474     -0.058877      0.373641
O       7.69140      9.54996     11.35641        -0.342726      0.517727      0.274771
O      11.49275      1.83923      2.84317        -1.320178      0.156177      0.251262
O      11.42012      1.87496     15.80538        -0.884721     -0.373672      0.462831
O      11.47603     13.49504      2.61488        -1.166962      0.127613      0.422986
O      11.50649     13.29071     15.65223         0.112325      0.517114      0.585325
O      11.53655      1.71035      7.03361        -1.211591      0.873946     -0.138604
O      11.49070     13.39642      7.04340        -0.589570     -0.224091      0.396676
O      11.46956      2.02599     11.48156        -0.377147     -1.086077     -0.299678
O      11.41722     13.35882     11.44517         0.949767      0.162350      0.242633
O      11.46216      5.69181      2.66664        -0.305861      0.124438      0.281453
O      11.45950      5.85936     15.72214         0.873637     -0.183727     -0.246820
O      11.48269      5.81901      6.96130        -0.345474     -0.274386      0.969387
O      11.45025      5.77068     11.22121         0.610500      0.112141      0.551924
O      11.48098      9.49968      2.64964        -1.068622      0.282826      0.391610
O      11.53705      9.66769     15.80573         0.413795     -0.129725      0.049273
O      11.50209      9.49321      7.04714        -0.754418      0.078828     -0.031457
O      11.45719      9.41048     11.38525         0.063921      0.341730     -0.091572
O       1.92998      3.78593      2.70834        -0.081979      0.838418      0.352849
O       2.01498      3.82600     15.71039        -0.988417     -0.248527      0.638654
O       1.79523     15.30066      2.59024        -0.332179     -0.089227      0.878064
O       1.96411     15.34703     15.63450        -0.109297      0.431104      0.472829
O      13.26486      3.78887      2.53997        -0.012110      0.373101      0.695227
O      13.36505      3.73858     15.66624        -0.166835      1.560539      0.075128
O      13.35186     15.34385      2.67328         0.401671     -0.349635      0.643042
O      13.44179     15.29409     15.82534        -0.935051      0.503830      0.187376
O       1.86871      3.73942      6.86982        -0.057945     -0.630605      0.468115
O       1.90593     15.33739      6.94552        -0.289692     -0.586355      0.171426
O      13.38491      3.76308      7.11220        -0.295193     -0.069127     -0.077014
O      13.40573      0.00091      7.01766         0.209653     -0.995669      0.179886
O       1.82094      3.81298     11.48855        -0.348439      0.469386      0.057927
O       1.76870     15.26523     11.41698         0.504640      0.851066      0.179555
O      13.30693      3.75254     11.30961         0.633746      1.804463      0.330820
O      13.24793     15.32053     11.32041         0.201336      0.019734      0.351907
O       1.82388      7.55146      2.81452        -0.209772      1.635226      0.006222
O       1.87631      7.59793     15.72970         0.359653      0.491541      0.612988
O      13.39463      7.59888      2.59004        -0.092223     -0.667651      0.732686
O      13.47744      7.75671     15.70075        -0.303286     -1.944556      0.615211
O       1.91136      7.57376      6.93503        -0.332816      0.352530      0.352234
O      13.44122      7.63902      7.05299         0.005293      0.022437      0.349724
O       2.00065      7.59629     11.38113        -0.053806      1.433326      0.411841
O      13.37706      7.68936     11.37125         0.074004     -0.632507      0.095126
O       1.87625     11.38743      2.86008         0.403207      0.807376     -0.390717
O       1.87174     11.50555     15.83619        -0.082263      0.550188     -0.198151
O      13.17874     11.46312      2.65989         0.663572      0.104725      0.485338
O      13.56402     11.52328     15.74178        -0.199538     -0.621894      0.834627
O       2.03557     11.51859      6.97228        -1.116560     -0.209924      0.512792
O      13.42087     11.44310      6.80620        -0.468513      0.804952      0.795999
O       1.79738     11.46047     11.54106         0.423551      0.198064     -0.452688
O      13.32651     11.48372     11.35428         0.102462     -0.589737      0.315773
O       5.60786      3.89432      2.70082         0.158784     -0.141579     -0.308207
O       5.82700      3.82079     15.82923        -0.317495      0.935041      0.454159
O       5.57810     15.33500      2.58757         0.497280     -0.197094      0.253134
O       5.52502      0.03446     15.60601         0.502321     -0.873980      0.421017
O       5.69979      3.71590      7.08166         0.164286      0.467255     -0.112318
O       5.73204     15.32072      7.00473         0.094870      0.498167      0.429582
O       5.69941      3.72835     11.44319         0.237861      0.030816     -0.484700
O       5.77016     15.31645     11.53807         0.043809     -0.099664     -0.155445
O       5.68735      7.63289      2.77766         0.373980      0.898201     -0.181423
O       5.81556      7.70731     15.53213        -0.283319     -0.492142      1.308887
O       5.67997      7.53379      7.05690         0.004324      1.591397      0.129739
O       5.69196      7.69040     11.34253        -0.144053     -0.613409      0.258994
O       5.52363     11.51355      2.45763         1.096231     -0.493055      0.619047
O       5.62234     11.48344     15.87882         0.548835      0.411251     -0.160104
O       5.64970     11.49097      7.03238         0.337227     -0.271461      0.295019
O       5.80651     11.54686     11.35411        -0.450813     -0.912499      0.423807
O       9.44427      3.82659      2.72790         0.495931      0.626325      0.210159
O       9.66873      3.81320     15.56038        -0.013933     -0.965072      0.482284
O       9.35671      0.03208      2.63637         0.685356     -0.821616      0.158362
O       9.51716      0.02850     15.69058         0.346878     -0.682707      0.974199
O       9.56859      3.74293      7.02803         0.439832     -0.230719      0.253010
O       9.57031     15.26686      7.20092        -0.035315      1.101123     -0.314870
O       9.53951      3.84386     11.36674         0.348933     -0.753218      0.260436
O       9.53335     15.30840     11.31688         0.316792     -0.258481      0.088008
O       9.56605      7.65208      2.61813        -0.343014      0.410649      0.267924
O       9.55615      7.69206     15.70710         0.161345     -0.216129      0.170046
O       9.42392      7.64946      6.91967         0.437629      0.099237      0.563714
O       9.35432      7.59843     11.39995         1.078575      0.771491     -0.178428
O       9.49973     11.58541      2.76017         0.296151     -0.488771     -0.224568
O       9.54533     11.51321     15.79939         0.118485     -0.488077      0.128337
O       9.43898     11.47354      6.88091         1.084907     -0.243884      0.546559
O       9.64595     11.46945     11.57500        -0.011501     -0.723082     -0.701800
