  # total energy = -7877.17612247 
CRSYTAL
PRIMVEC
    15.2000000000000000    0.0000000000000000    0.0000000000000000
     0.0000000000000000   15.2000000000000000    0.0000000000000000
     0.0000000000000000    0.0000000000000000    17.000000000000000
PRESSURE
8.5912 8.85912 4.79387 -0.1854 0.194208 0.02683
PRIMCOORD
320 1
Pb       3.89212      3.63874      4.16076        -0.520952      0.198393      0.172064
Pb       3.65459      3.65603     16.84662        -0.046642      0.154330      0.297765
Pb       3.94983     15.00050      4.08320        -0.532847     -0.009185      0.337767
Pb       3.59913     15.16130     16.88527         0.396732     -0.386960      0.126812
Pb      15.19175      3.47574      4.16609         0.251179      0.902032      0.463438
Pb      15.09693      3.91433     16.97714         0.071836     -0.657501      0.610298
Pb      15.12254     14.93683      4.22191         0.279052      0.539607     -0.021565
Pb      15.03814      0.00573      0.11452         0.143006      0.244994     -0.083178
Pb       3.50762      3.97371      8.54732         1.457275     -0.579058      0.178655
Pb       3.80575      0.01574      8.41376         0.147987     -0.321863      0.274372
Pb       0.02329      3.80381      8.45886        -0.376088     -0.319381     -0.369858
Pb       0.06650      0.08249      8.19638        -0.358385     -0.660494      0.804467
Pb       3.72787      3.79934     12.69108         0.013667     -0.047464      0.933671
Pb       3.73786      0.06998     12.75082        -0.206009     -0.151805     -0.232871
Pb      15.01789      4.02088     12.73758         0.802158     -1.144255      0.225728
Pb      15.07602      0.06604     12.70110        -0.031512      0.112382     -0.136986
Pb       3.88797      7.45405      4.14332        -0.392950      0.204231      0.028191
Pb       3.61083      7.49951     16.79138         0.722923      0.268764      0.830482
Pb      15.18632      7.49450      4.29967         0.829023     -0.292038     -0.551394
Pb      14.96156      7.51302      0.11482         0.742277      0.247233      0.572139
Pb       3.81867      7.54859      8.56833        -0.097109      0.366951     -0.303449
Pb       0.11207      7.66724      8.47577         0.033854     -0.291689     -0.493508
Pb       3.78209      7.74174     12.82642        -0.043419     -0.102861      0.145498
Pb       0.00078      7.74637     12.82580         0.485249     -0.002814      0.109206
Pb       4.05478     11.22292      4.13587        -0.639725      0.056444     -0.102159
Pb       3.69099     11.39714     16.82450         0.413625     -0.308158      0.524248
Pb       0.14842     11.22091      4.19917         0.051645      0.912908      0.020838
Pb      15.03506     11.35705      0.00748         0.192188      0.042161      0.803271
Pb       3.81320     11.41762      8.49153         0.288433     -0.203274     -0.226341
Pb       0.22217     11.42330      8.34029        -0.596389      0.469920      0.115198
Pb       3.88104     11.59878     12.67116        -1.095387     -1.099069      0.565306
Pb       0.05495     11.53843     12.81846        -0.246209     -0.346897     -0.303778
Pb       7.59270      3.83666      4.38727        -0.197252     -0.666178     -0.038668
Pb       7.54186      3.75970     16.88649         0.612552     -0.266922     -0.102519
Pb       7.59508     15.12695      4.22784         0.100187     -0.004678      0.101899
Pb       7.54715      0.00108     16.84271        -0.193064     -0.240382      0.913027
Pb       7.29620      3.72269      8.76715         0.628250      0.387931     -0.559792
Pb       7.57413      0.05461      8.65813         0.118399     -0.414158     -0.680864
Pb       7.66782      3.82187     12.72633        -0.231082     -0.278899     -0.113422
Pb       7.48229     14.99589     12.75636         0.400183      0.814779      0.223258
Pb       7.52747      7.52708      4.06298        -0.280246      0.489293      0.441122
Pb       7.77659      7.54510      0.03695        -0.561717      0.446569     -0.387989
Pb       7.48529      7.52825      8.56448         0.533528      0.148069      0.322790
Pb       7.56761      7.64398     12.68609        -0.200432     -0.050743     -0.016930
Pb       7.64592     11.47977      4.30985        -0.086804     -0.447072     -0.482404
Pb       7.41980     11.35606     16.95100         0.700703     -0.614978      0.192692
Pb       7.69752     11.33430      8.65862        -0.401497     -0.138655     -0.814966
Pb       7.68939     11.53786     12.77180        -0.199769     -0.622723      0.481315
Pb      11.23609      3.79247      4.42796         0.157484      0.021740     -0.204721
Pb      11.26471      3.78554     16.93515         0.243542      0.232955      0.234743
Pb      11.29985     15.16167      4.27066        -0.309136     -0.176091      0.168446
Pb      11.30638      0.16650      0.09097         0.073590     -0.700710     -0.094308
Pb      11.36459      3.84625      8.49982        -0.011110     -0.196506      0.355562
Pb      11.53251     15.18240      8.49954        -0.487720     -0.203794     -0.416260
Pb      11.40101      3.83317     12.60673        -0.048839     -0.664118      0.407763
Pb      11.40853      0.00161     12.59722         0.095822      0.282602      0.419348
Pb      11.26982      7.41999      4.32044        -0.136654      0.422122      0.102556
Pb      11.46328      7.66052      0.04562        -0.635625     -0.320645     -0.079884
Pb      11.45481      7.61247      8.59232        -0.256485      0.082197     -0.650697
Pb      11.56381      7.78843     12.81091        -0.428069     -0.364426      0.009259
Pb      11.35028     11.43015      4.28323        -0.394464     -0.353512     -0.188302
Pb      11.35735     11.32409      0.06027        -0.161433      0.068725     -0.235594
Pb      11.48947     11.32765      8.32881        -0.545628      0.036670      0.472806
Pb      11.46808     11.45582     12.62070         0.123125      0.403451      1.652571
Ti       1.91317      1.68511      2.26280        -0.584119      1.128551      0.705963
Ti       1.70482      1.81256     14.92583         0.235608      0.634650      0.865734
Ti       1.87011     13.20595      2.16560         0.275647     -1.104488      0.766891
Ti       1.67653     13.28200     14.97426         1.690968      0.237648      0.160968
Ti      13.20121      1.84167      2.34158         1.106284      0.201036     -0.751741
Ti      13.22162      1.88266     15.01671         0.166793      0.063214     -0.544232
Ti      13.18963     13.22670      2.27102         1.029932      0.017448      1.349248
Ti      13.20422     13.36846     15.06535        -0.998469     -1.246845     -0.188859
Ti       2.02244      1.88635      6.36270        -0.838688     -0.380015     -0.428092
Ti       1.94614     13.36360      6.33229         0.246904     -1.453148     -0.680252
Ti      13.22801      1.90488      6.45642         1.332591     -0.796922      0.464717
Ti      13.20816     13.22508      6.37665         0.598239      0.881596      1.499172
Ti       1.87767      1.84140     10.68673        -0.257916      0.254440      0.351572
Ti       1.75050     13.34415     10.71410         1.481570      0.355791     -0.548660
Ti      13.33663      1.95143     10.68759        -0.114140     -0.901971      0.255805
Ti      13.27838     13.24303     10.64306         0.679745      1.397020     -1.193525
Ti       1.91999      5.50673      2.22938        -0.605250      1.155964      1.082720
Ti       1.80409      5.64059     15.03612         1.408760     -0.074603     -1.496656
Ti      13.27116      5.63516      2.37171         0.891716     -0.218712     -0.941994
Ti      13.28325      5.67624     14.98252        -0.833096      0.066328     -0.569884
Ti       1.93984      5.65966      6.36347         0.281988      0.813737     -0.509223
Ti      13.32970      5.69468      6.49805        -0.257661      0.291664     -0.025962
Ti       1.89617      5.70343     10.87587         0.085273      0.596637      0.081876
Ti      13.33821      5.75429     10.74841        -0.676151     -0.337800     -0.667535
Ti       1.87790      9.37018      2.16681         0.493151     -0.157282      1.086910
Ti       1.77781      9.49575     15.11217         1.116229     -0.387080     -0.264253
Ti      13.25390      9.40154      2.54763        -0.213881      0.631161     -1.633878
Ti      13.27351      9.49700     15.08749        -0.479421      0.364574     -1.566991
Ti       1.99322      9.52007      6.37873         0.597629     -0.483551      0.114762
Ti      13.38865      9.48306      6.39956        -1.235169     -0.428858      2.178411
Ti       1.91792      9.55653     10.79316         1.187192      0.500412      0.111316
Ti      13.42308      9.50507     10.71115        -0.599615      0.699292     -0.407900
Ti       5.71399      1.79276      2.11961         0.250474     -1.407136     -0.382982
Ti       5.65752      1.82402     15.01463         0.015986      0.020947     -0.460697
Ti       5.73769     13.16466      2.13208        -0.049158     -0.326833     -0.619001
Ti       5.64918     13.18542     14.98167        -0.128529      0.716481      0.230263
Ti       5.69673      1.88937      6.51542         0.778085     -0.034748      0.743804
Ti       5.70286     13.22844      6.53003         0.544695     -0.115656      0.801494
Ti       5.66324      1.92081     10.75498        -0.116999     -1.202253      0.652415
Ti       5.60971     13.29808     10.72633        -0.014919      0.278512     -1.554416
Ti       5.72062      5.49297      2.04880        -1.551535      1.243608      0.393314
Ti       5.70896      5.63719     15.08031        -0.567125      0.373259     -1.818638
Ti       5.71920      5.67542      6.56366        -0.497235     -0.742778      1.404439
Ti       5.63710      5.70583     10.96201         1.054611      0.612854     -0.023319
Ti       5.59344      9.29488      2.00158         1.555056      0.822019      0.514251
Ti       5.65827      9.34946     14.89305         0.289349      0.801829      0.542326
Ti       5.73329      9.42285      6.52570         0.106945      0.651102      0.097660
Ti       5.68982      9.53402     10.79160         0.060054     -0.950430      0.791123
Ti       9.43732      1.90380      2.29471         0.004755     -1.063944      0.378411
Ti       9.52038      1.84812     14.88197        -0.365788      0.048146     -0.232154
Ti       9.48258     13.23160      2.14503        -1.250483      0.183886     -0.002907
Ti       9.45937     13.26485     15.18046         0.710652     -0.249823     -1.236011
Ti       9.46270      1.90824      6.58399         0.335785     -0.732695      1.944166
Ti       9.37315     13.26201      6.60788         0.615867      0.855877     -0.148608
Ti       9.45906      1.85238     10.73216         0.619371      1.250641     -0.433468
Ti       9.51521     13.25637     10.73713        -0.556125      1.676748     -1.438358
Ti       9.46212      5.59612      2.23412         0.439924      0.564631     -0.661882
Ti       9.54485      5.71876     14.86422        -0.083816      0.079566      2.099601
Ti       9.46827      5.69935      6.66079         0.347367      0.349108     -0.241693
Ti       9.60784      5.75302     10.78332        -1.174431     -0.469748     -0.535869
Ti       9.44693      9.41373      2.28481        -1.067043      0.435747     -0.256680
Ti       9.45829      9.46397     14.90891        -0.559323      0.411555      1.202013
Ti       9.49705      9.42064      6.45318         0.107317      0.027919      0.748240
Ti       9.57670      9.57339     10.82869        -0.817436     -1.297895     -1.048113
O       1.83108      1.84595      0.49796        -0.178564     -0.578488     -0.392750
O       1.79171      1.81272     13.19539         0.067016      0.104728     -0.680382
O       1.78140     13.36518      0.41240         0.370491     -0.098380     -0.750907
O       1.72401     13.37862     13.20150         0.258764     -0.136428     -0.403087
O      13.21605      1.72961      0.51736         0.130063      0.537777      0.270753
O      13.20880      1.85086     13.24511         0.138191     -0.119000     -0.583307
O      13.08471     13.27639      0.54904         0.567069     -0.263306     -1.440841
O      13.27166     13.22763     13.29010        -0.132832      0.318067     -0.202907
O       2.00528      1.86098      4.59207        -0.052012      0.000360      0.284176
O       2.02906     13.20893      4.54625        -0.217040     -0.000567      0.632425
O      13.40805      1.87024      4.70348        -0.966594      0.068664     -0.735041
O      13.27769     13.37130      4.63884        -0.671690     -0.479491     -0.862181
O       1.89732      1.73360      8.90294        -0.013868      0.680905     -0.199320
O       1.78752     13.40364      8.94601         0.113810     -0.423999     -0.813113
O      13.46655      1.85441      8.94290         0.076122      0.169065     -0.988231
O      13.36391     13.31634      8.85570        -0.236398     -0.194245      0.536915
O       1.83090      5.63082      0.47773         0.394928     -0.306451     -1.637999
O       1.89677      5.50406     13.22109        -0.656201      0.530438     -0.052531
O      13.36906      5.76867      0.52317        -0.599075     -0.518208     -0.398091
O      13.17626      5.73532     13.17834         0.581184     -0.143818      0.101651
O       2.08009      5.65330      4.60676        -0.742924     -0.188387      0.442131
O      13.35483      5.66780      4.68976        -0.386847      0.112912      0.312372
O       1.94057      5.82628      9.07078        -0.171769     -0.447847      0.052570
O      13.33802      5.71666      8.97500         0.520763      0.169307     -0.382701
O       1.90728      9.24222      0.41155        -0.150695      0.692175     -1.032830
O       1.80440      9.48263     13.36857        -0.696666      0.106445     -1.266880
O      13.34920      9.49486      0.71432        -0.442691     -0.235187     -0.658786
O      13.38467      9.46061     13.26814        -0.109281      0.314860      0.189028
O       1.94144      9.55134      4.62150         0.285555     -0.137215     -0.099864
O      13.27557      9.43166      4.68493        -0.032793     -0.176610     -1.897667
O       1.96606      9.57631      9.02564        -0.307138     -0.182420     -0.629315
O      13.39094      9.42383      8.92950         0.204232      0.454020      0.686366
O       5.76623      1.70427      0.31949        -0.387325      0.664290      0.536676
O       5.66549      1.84343     13.24759        -0.115294     -0.125920     -0.228306
O       5.83249     13.20403      0.36249        -0.382743     -0.057665     -0.379957
O       5.56909     13.27234     13.15399         0.716118      0.182744     -0.076201
O       5.84585      2.00372      4.77958        -0.328078      0.072131     -0.992629
O       5.90055     13.03103      4.76525        -0.560390      0.452911     -0.940975
O       5.65386      1.68680      8.98962         0.149054      0.909668     -0.396154
O       5.62512     13.31890      8.88420         0.286146     -0.045220      1.264591
O       5.69831      5.66839      0.30388        -0.109621     -0.479826     -0.066915
O       5.73129      5.66684     13.24314         0.049260     -0.427502     -0.077037
O       5.77277      5.64489      4.85645         0.096848     -0.279461     -1.778252
O       5.63272      5.74236      9.18367         0.009191     -0.160856     -0.950318
O       5.44172      9.31277      0.26846         0.589232      0.249511     -0.720382
O       5.71489      9.53326     13.11241         0.295372     -0.285838      0.144035
O       5.75120      9.38936      4.77279         0.054831      0.125807     -0.710918
O       5.54830      9.38897      9.05789         0.271888      0.154016     -1.498625
O       9.51616      2.02558      0.55965        -0.000047     -0.336349     -1.037897
O       9.56926      1.84370     13.11115        -0.127908     -0.307717      0.015886
O       9.38987     13.10016      0.37127         0.082401      0.421469     -0.083958
O       9.39555     13.38770     13.36943         0.359160     -0.098139     -0.784829
O       9.43164      1.85494      4.85401         0.370863      0.150197     -1.991214
O       9.31615     13.35734      4.79262         0.381068     -0.441794     -0.131062
O       9.48741      1.99732      8.95382        -0.149914      0.155292     -0.403194
O       9.45055     13.17866      8.95751         0.018037     -0.086027      0.067447
O       9.50287      5.57181      0.44879        -0.093378      0.155697      0.420191
O       9.76459      5.74423     13.15313        -0.730546      0.096642     -0.715804
O       9.57144      5.73894      4.81768        -0.262681     -0.147355     -0.325388
O       9.65596      5.64078      8.99470        -0.402795     -0.284241     -0.179272
O       9.37245      9.28023      0.52120         0.992796      0.382296     -0.735305
O       9.45887      9.43924     13.16973         0.107260     -0.056547     -1.712524
O       9.52573      9.28262      4.69522        -0.188871      0.255361     -0.720983
O       9.58321      9.70261      9.05733         0.079733     -0.131513     -0.085552
O       3.77430      1.72462      2.59499         1.483668     -0.009492     -0.288723
O       3.60006      1.82138     15.32275         1.673035     -0.322085     -0.067707
O       3.84527     13.19520      2.44317         0.034945     -0.000941      0.254770
O       3.77554     13.25400     15.35487        -0.434151      0.376566     -0.168543
O      15.16416      1.69998      2.71841         0.499607      0.309923     -0.699300
O      15.05855      1.74369     15.38850         0.624825      0.122077      0.233203
O      15.18833     13.07345      2.45108        -0.331305      0.936469      0.500528
O      15.08385     13.16772     15.35005        -0.664664      0.306942      0.383445
O       3.85929      1.79717      6.79639        -0.493573      0.594041      0.132481
O       3.84788     13.22767      6.70617        -0.385592      0.351262      0.404248
O       0.07394      1.85632      6.69778        -0.117481      0.478156      0.191758
O       0.04155     13.20618      6.58852        -0.209446      0.317719      0.354229
O       3.75456      1.91375     11.16852         0.184556     -0.557299     -0.104126
O       3.75563     13.34788     10.96850         0.686623      0.394450      0.600339
O       0.03877      1.91314     11.14430        -0.759435     -0.080153     -0.082691
O      15.15439     13.35763     11.07344        -0.822381     -0.099468      0.405692
O       3.83008      5.63180      2.67176         1.094497     -0.554484     -0.873517
O       3.71972      5.59121     15.30015         0.272423     -0.288695      0.379600
O       0.01996      5.67982      2.37577         0.478416     -0.698952      1.279559
O      15.16046      5.66449     15.30951        -0.690038     -0.051037      0.364816
O       3.78052      5.65581      6.88736         0.237721      0.309369      0.327493
O       0.06382      5.77275      6.75408         0.021764     -0.684817      0.501461
O       3.80841      5.78367     11.27919        -1.589930     -0.322589     -0.212179
O       0.00447      5.78087     11.18442        -0.071446      0.069188     -0.056982
O       3.85643      9.28441      2.54924        -1.345049      0.668316      0.393660
O       3.75894      9.50292     15.14019        -0.370169     -0.161678      0.744489
O       0.00958      9.49159      2.68997         0.009477     -0.353504     -0.059962
O      15.10888      9.48967     15.49217         0.356748      0.106344      0.003540
O       3.86710      9.51096      6.77519        -0.754254      0.008733      0.380104
O       0.04881      9.62513      6.65422         0.539401     -0.212715      0.532183
O       3.80793      9.52692     11.23764        -1.036519     -0.191884     -0.000571
O       0.05060      9.61559     11.19784        -0.842851     -0.361495     -0.190692
O       7.60741      1.89784      2.70550        -0.948001      0.058603     -0.497978
O       7.67278      1.91362     15.32285        -0.991357     -0.272804     -0.130104
O       7.62522     13.24737      2.61728        -0.245188     -0.217485      0.035279
O       7.55130     13.21090     15.29900        -0.485063      0.435406      0.166658
O       7.66524      1.99675      6.96685        -1.002823      0.143000      0.270818
O       7.54711     13.35623      6.97711         0.609574     -0.384314      0.276152
O       7.56396      2.00451     11.08172        -0.471146      0.147532      0.034979
O       7.62586     13.23716     11.15638        -1.011926     -0.124078     -0.180577
O       7.49612      5.50487      2.62613         1.157107      0.025097     -0.240622
O       7.57754      5.69630     15.35645         1.462029     -0.373414     -0.432816
O       7.62936      5.57387      7.05798        -0.231411      0.232745     -0.127610
O       7.65059      5.73213     11.14536        -0.039571     -0.501532      0.193229
O       7.52298      9.33493      2.35794         0.358775      0.014128      0.866689
O       7.57113      9.24782     15.30585        -0.466575      0.459294      0.079984
O       7.65031      9.46088      6.83520        -0.180109     -0.350608      0.697629
O       7.58647      9.50903     10.96500         1.001369      0.278387      0.565639
O      11.41688      1.80963      2.68615        -1.309465      0.162952      0.355806
O      11.37050      1.84726     15.39057        -0.691465      0.313318      0.320929
O      11.30849     13.18663      2.61425         0.237136      0.610586      0.452487
O      11.34182     13.25200     15.54346        -0.192593     -0.522442     -0.398017
O      11.45103      1.91589      6.94285        -0.346909     -0.256604     -0.267465
O      11.32650     13.27409      6.91150         0.952056     -0.097072     -0.481889
O      11.43991      1.92655     10.90192        -0.319817     -0.288226      0.595637
O      11.38334     13.29747     11.09571         0.236880      0.236661     -0.092368
O      11.40517      5.70987      2.56170        -0.832415     -0.197071      0.349611
O      11.46711      5.70251     15.44859        -1.207278     -0.176165     -0.195530
O      11.43971      5.83465      6.96014         1.043241     -0.336929     -0.500170
O      11.44441      5.61615     11.09004         0.559287      0.492876     -0.149540
O      11.29393      9.37600      2.56855         1.727210      0.038298      0.617572
O      11.34372      9.45491     15.29778         0.434228     -0.064818      0.562508
O      11.42169      9.43987      6.81370         0.233013     -0.027323      0.132271
O      11.47055      9.65616     11.25892         0.377392     -0.853598     -0.909924
O       1.97177      3.64145      2.60294        -0.291257      0.303385     -0.244055
O       1.84281      3.73593     15.35176        -0.802907     -0.448144      0.280871
O       1.96269     15.04988      2.66941        -0.417334      0.078044     -0.387163
O       1.70278     15.12175     15.31764         0.501075      0.516719      0.395596
O      13.29538      3.78034      2.65275         0.144800     -1.004633     -0.074072
O      13.34713      3.74292     15.24879        -0.285927      0.992056      0.492738
O      13.30089     15.13844      2.62584        -0.254356     -0.650741      0.111880
O      13.06496     15.16999     15.37558         0.874349     -0.091157      0.201018
O       2.06925      3.74093      6.79610        -1.117294      0.782914      0.041167
O       2.02440      0.00330      6.70976        -0.420238     -0.619776     -0.028491
O      13.35395      3.77364      6.84508         0.099692      0.912365      0.095135
O      13.22698     15.14585      6.72000         0.296978      0.426102      0.337934
O       1.84705      3.79838     10.96712         0.350281      0.606790      0.152931
O       1.92923      0.01526     11.04234        -0.180543     -0.038634      0.656787
O      13.32810      3.83422     10.94814         0.438983      0.062309      0.660424
O      13.23694      0.00495     11.08629         0.292642     -0.275737      0.037506
O       1.93789      7.52125      2.59689        -0.275205     -0.345929      0.228669
O       1.82323      7.54666     15.26281        -0.139153     -0.189613      0.051713
O      13.51598      7.52272      2.62493        -1.054743      0.607996      0.494865
O      13.27301      7.59012     15.24941         0.132924     -0.227992      0.808553
O       1.99551      7.61149      6.76377        -0.508147      0.102714      0.170155
O      13.42973      7.63527      6.89274         0.051287     -0.461455     -0.285051
O       1.88783      7.72237     11.16291        -0.240135     -1.319656      0.180547
O      13.23855      7.62849     11.06115         0.312734      0.733359      0.272271
O       1.93474     11.26679      2.39942         0.366978      0.383010      0.202236
O       1.87197     11.42683     15.30221        -0.476025     -0.655381      0.495546
O      13.26048     11.39122      2.81885        -0.537930     -0.898869     -0.280381
O      13.19386     11.33759     15.51251         0.125138      0.509789     -0.054042
O       2.03569     11.42314      6.87855        -0.399412     -0.087614     -0.218054
O      13.20518     11.38368      6.73897         0.464475     -0.376455     -0.214233
O       1.98449     11.52776     11.09013        -0.660130     -1.348719      0.336694
O      13.36004     11.45431     11.06207        -0.199917     -0.984013      0.182591
O       5.62908      3.57624      2.42276        -0.075756      2.165232      0.167986
O       5.73452      3.71140     15.29595        -0.534935     -0.164089      0.495931
O       5.71010     15.05215      2.43847         0.264679      1.050499      0.678317
O       5.75386     15.13779     15.29917        -0.348494     -0.011082     -0.145868
O       5.67873      3.82273      7.00008        -0.140743     -0.721535      0.285929
O       5.73862      0.02132      6.72850         0.125726     -0.730460      0.254319
O       5.54907      3.74941     11.10036         0.712505      0.814201      0.034826
O       5.82306     15.18399     11.04453        -0.586635     -0.234578      0.447484
O       5.75130      7.46547      2.48635        -0.207849     -1.228689      0.087618
O       5.60420      7.50770     15.15601        -0.330116      0.295378      0.274063
O       5.67918      7.52299      6.96181         0.373109      0.360281      0.224273
O       5.69961      7.59269     11.17729        -0.021960      0.307722      0.395772
O       5.72880     11.26538      2.44204         0.055821     -0.155924      0.179215
O       5.73071     11.33589     15.32389        -0.376765     -0.330336     -0.236388
O       5.81278     11.31249      6.90576        -0.271891      0.514084      0.238629
O       5.54634     11.36191     11.07913         0.923948      1.869951     -0.213199
O       9.52626      3.74448      2.59614         0.327589      0.873482      1.086119
O       9.53523      3.74980     15.25522         0.062885      1.011747     -0.042034
O       9.40523     15.19200      2.66414         0.776164     -0.535823     -0.368694
O       9.46502     15.18020     15.49323         0.297819      0.486983     -0.473059
O       9.78384      3.85140      6.66515        -0.378206     -0.642796      0.509210
O       9.56618     15.16535      6.89945        -0.188779      0.760643      0.326346
O       9.53804      3.75376     11.18859        -0.234394      1.035353      0.018657
O       9.32598      0.03268     10.85795         0.596381     -1.433795      0.915175
O       9.48657      7.47084      2.62132        -0.441022     -0.415027     -0.035193
O       9.50214      7.58805     15.38545         0.504048     -1.623249     -0.244920
O       9.52673      7.56356      7.03476        -0.298442      0.563946     -0.060875
O       9.60171      7.63521     10.87514         0.141706      0.289496      0.838676
O       9.47616     11.37762      2.47613         0.050207     -0.838474      0.771741
O       9.30938     11.30614     15.16557         0.475054      0.338806      0.811341
O       9.53050     11.36476      6.75598        -0.324221     -0.462328      0.205459
O       9.52695     11.48492     11.14564        -0.210318     -1.514602      0.720377
