  # total energy = -7867.44007658 
CRSYTAL
PRIMVEC
    15.010000000000000    0.0000000000000000    0.0000000000000000
     0.0000000000000000   15.010000000000000    0.0000000000000000
     0.0000000000000000    0.0000000000000000    16.400000000000000
PRESSURE
18.4438 18.6901 8.69426 -0.119172 -0.233365 -0.012658
PRIMCOORD
320 1
Pb       3.88729      3.82272      4.24673        -0.900258     -0.228358     -0.682436
Pb       3.71798      3.72730      0.04618         0.343519      0.100328     -0.238323
Pb       3.67494      0.04512      4.10704        -0.261195     -0.614645      0.165410
Pb       3.70657     14.91360     16.39657         0.413952      0.107882      0.065227
Pb      14.95940      3.69428      4.07864         0.370488      0.202742     -0.261005
Pb       0.01582      3.63459     16.33940        -0.520703      0.416617      0.774185
Pb      14.99153      0.00128      4.12998         0.520474     -0.427312     -0.373444
Pb      14.96061     14.90957      0.10007        -0.074183     -0.161827      0.214386
Pb       3.67564      3.78638      8.22843        -0.259129     -0.241961      0.230534
Pb       3.63695     14.93979      8.10177         0.446321      0.505159      0.660275
Pb      14.92193      3.80499      8.29957         0.398173     -0.272019      0.209597
Pb      14.90734     14.96973      8.15165         0.127278      0.276438      0.495120
Pb       3.58088      3.74363     12.30181         0.166667     -0.030070      0.679896
Pb       3.69624     14.94523     12.37672         0.291293      0.391565     -0.098761
Pb      14.97742      3.70476     12.40431         0.025265      0.055767     -0.283663
Pb      15.00679     14.95194     12.38521        -0.243158      0.389518     -0.219451
Pb       3.81360      7.39427      4.11503        -0.189019      0.905282     -0.260627
Pb       3.73309      7.40721      0.07824         0.004345      0.293828     -0.260698
Pb      14.99755      7.47067      4.14483         0.094539      0.465625     -0.184220
Pb      14.96924      7.51596     16.38545         0.283792     -0.246159      0.194451
Pb       3.76595      7.49147      8.04375        -0.226250     -0.064932      0.991684
Pb      14.97137      7.50611      8.30195         0.056876     -0.338624      0.619410
Pb       3.71325      7.60978     12.27156         0.271081     -0.461386      0.568480
Pb      14.95757      7.42384     12.37185         0.065714      0.125316      0.053325
Pb       3.75676     11.25962      4.31156        -0.183451     -0.473404     -0.579504
Pb       3.76963     11.16493     16.29407        -0.359630      0.410650      0.719854
Pb       0.09568     11.23101      4.09493         0.091862      0.069586     -0.091842
Pb      14.98146     11.29055      0.02245         0.087318      0.043587      0.422306
Pb       3.85346     11.25866      8.13775        -0.653179      0.092615      0.519320
Pb      15.00903     11.26571      8.22459         0.121915     -0.209653      0.677960
Pb       3.76825     11.33896     12.26631        -0.118174     -0.058799      0.337688
Pb       0.02649     11.28298     12.34697        -0.151168     -0.247514     -0.092569
Pb       7.48860      3.64757      4.06613         0.243743      0.569160     -0.424298
Pb       7.49458      3.71220     16.33059        -0.599069      0.384792      0.591145
Pb       7.46621     14.91654      4.11596         0.396520      0.252040     -0.390763
Pb       7.37353     15.00726      0.00749        -0.193386     -0.194772      0.276584
Pb       7.41479      3.68784      8.13605         0.389481     -0.026468      1.145739
Pb       7.54186      0.13888      8.12070        -0.145583     -0.534755      0.857602
Pb       7.40926      3.76953     12.29058        -0.184253     -0.175684     -0.289283
Pb       7.49170     14.88895     12.39663        -0.341836      0.290583     -0.853865
Pb       7.48666      7.53863      4.05142        -0.041604     -0.266704      0.107484
Pb       7.48573      7.55656     16.36056         0.221182     -0.395119      0.074257
Pb       7.43916      7.49714      8.28623         0.208479      0.152573      0.186462
Pb       7.46947      7.51043     12.35413        -0.424062      0.030341     -0.266580
Pb       7.68788     11.27869      4.15116        -0.485798     -0.451390      0.121912
Pb       7.54413     11.22468     16.37526        -0.184475     -0.087722      0.110912
Pb       7.55610     11.32071      8.09339        -0.117580     -0.294753      1.376484
Pb       7.47643     11.20051     12.25323        -0.000118      0.456988      0.477011
Pb      11.11820      3.77194      4.08114        -0.091785      0.160817     -0.214121
Pb      11.23907      3.64130     16.35494        -0.014487      0.459791      0.042094
Pb      11.26962      0.00282      4.11091        -0.378206     -0.530312     -0.161338
Pb      11.14650     14.90756      0.09611         0.519068      0.146931      0.174008
Pb      11.14366      3.73925      8.12813         0.266658     -0.031708      0.786346
Pb      11.16243      0.06446      8.17947         0.454486     -0.570291      0.777351
Pb      11.23336      3.70090     12.38340         0.416719      0.008638      0.175395
Pb      11.23378      0.10560     12.37395        -0.026455     -0.456691     -0.399401
Pb      11.38225      7.47507      4.15856        -0.715773      0.388660     -0.286644
Pb      11.27144      7.52335      0.02275        -0.192597     -0.342099     -0.090798
Pb      11.22209      7.47572      8.20165        -0.402907      0.164316      0.853288
Pb      11.34936      7.48490     12.30044        -0.311578     -0.040551      0.546653
Pb      11.45619     11.13977      4.12098        -0.697246      0.149768     -0.322243
Pb      11.38856     11.11782     16.38335        -0.503874      0.589089      0.902707
Pb      11.26690     11.20659      8.23478         0.005452      0.601068      0.682797
Pb      11.27365     11.28553     12.26516        -0.314127     -0.108754      0.287814
Ti       1.90426      1.90444      2.10435        -1.058889     -0.485225     -0.266117
Ti       1.85335      1.80771     14.52123         0.033996      0.239416     -0.950526
Ti       1.95227     13.11157      2.09235        -1.147914     -0.411673      0.134099
Ti       1.80318     13.13908     14.46523         0.367359     -1.084625     -0.127374
Ti      13.04787      1.88796      2.15229         0.543625     -0.126200     -1.367488
Ti      13.07416      1.77052     14.55846         0.526289      1.045014      0.146187
Ti      13.11973     13.15979      2.20900         0.480784     -1.164712     -1.366222
Ti      12.99955     13.12163     14.42334         1.834221     -0.456403      0.281484
Ti       1.79745      1.89568      6.29839         0.151497     -0.054431     -0.458035
Ti       1.89833     13.04933      6.33767        -0.165169      0.023355     -1.560631
Ti      13.15812      1.89899      6.16440        -0.587794     -0.529771     -0.182363
Ti      13.21669     13.08288      6.24390        -1.525546      0.207397     -0.870999
Ti       1.85237      1.89268     10.32382        -1.368208     -0.393945     -0.049234
Ti       1.82143     13.15379     10.37787         0.038113     -0.466979     -0.666839
Ti      13.10183      1.85313     10.33654         0.443886     -0.554870     -0.875439
Ti      13.03517     13.15912     10.33904         0.896132     -0.323024     -0.226586
Ti       1.77897      5.59632      2.14418         0.224679      0.540793     -0.834549
Ti       1.87385      5.64834     14.49295         0.197863     -0.619949     -0.755034
Ti      13.05714      5.63265      2.11687         1.204459     -0.295264     -1.122114
Ti      13.13232      5.58483     14.44097        -0.287689      0.207902     -0.482506
Ti       1.78935      5.62917      6.21230         0.481397     -1.159897     -0.031193
Ti      13.10840      5.61568      6.25005         0.191521      0.026881      0.640702
Ti       1.82465      5.71421     10.36705        -1.380689     -1.619637     -0.337546
Ti      13.05127      5.58753     10.34124         0.476428     -0.175892      0.364455
Ti       1.91695      9.35191      2.07756         0.075203      0.381127      0.345272
Ti       1.88713      9.37659     14.42185        -0.439826      0.553478      1.210231
Ti      13.20633      9.35572      2.16298        -1.373283      0.421737      0.080796
Ti      13.16255      9.35570     14.41222         0.435279      0.546556     -0.441206
Ti       1.78366      9.26948      6.27254         1.519987      1.452649     -0.762486
Ti      13.13469      9.32146      6.35829         0.303249      1.054847     -1.898697
Ti       1.85581      9.39236     10.27835        -0.557065      0.845353     -0.143875
Ti      13.08771      9.38124     10.38056         0.962733      0.496174     -0.334203
Ti       5.56146      1.80707      2.14007         0.326599      0.310947     -1.145243
Ti       5.55400      1.92924     14.34696        -0.670186     -0.940430      0.287831
Ti       5.63332     12.98555      2.18137        -1.034070      1.708261     -1.009656
Ti       5.61061     13.11290     14.48935        -0.345606      0.003439     -0.429514
Ti       5.61958      1.87690      6.17720        -0.359459     -0.910295      0.388786
Ti       5.71902     13.15163      6.15363        -0.793259     -0.797947      0.883187
Ti       5.51467      1.86281     10.35230         1.067190     -0.361553     -0.260544
Ti       5.60482     13.15719     10.29058         0.105671      0.708765     -0.306200
Ti       5.55980      5.58618      2.05695         0.921350      0.401265      0.123451
Ti       5.63680      5.68534     14.39424        -1.061471     -0.937281     -0.080858
Ti       5.65826      5.56911      6.30178        -0.442894      0.195382     -1.003370
Ti       5.50100      5.61721     10.37030         1.160483      0.107716     -0.177562
Ti       5.63554      9.40192      2.11648        -0.719450     -0.346271      0.549596
Ti       5.63310      9.39138     14.38072        -0.161845     -0.059903     -0.376852
Ti       5.65215      9.33102      6.26914        -0.353873      0.679610     -1.369947
Ti       5.53792      9.44523     10.26794         1.227877     -0.809882      0.643924
Ti       9.31453      1.77091      2.02127        -0.650975      0.971045      1.166071
Ti       9.28517      1.84653     14.39453         0.816916      0.434148     -0.117086
Ti       9.33089     13.07797      2.05403         0.226793     -0.451735      0.741124
Ti       9.35030     13.12746     14.45247        -0.538648     -0.829225     -0.553289
Ti       9.44070      1.82471      6.16851        -0.862915      0.532592      0.051126
Ti       9.50942     13.06293      6.22498        -0.426234      1.033589     -0.862203
Ti       9.38878      1.95593     10.39863        -1.195033     -1.185306     -0.477653
Ti       9.35576     13.14006     10.36534        -0.027806      0.347423     -0.369783
Ti       9.31173      5.67179      2.05504         0.248432     -1.428175      0.438080
Ti       9.36689      5.59836     14.28593         0.073206      0.370554      0.976997
Ti       9.34781      5.63386      6.28703        -0.254187      0.827709     -1.068938
Ti       9.32592      5.67582     10.33969        -0.998454     -1.120485     -0.567301
Ti       9.37580      9.36795      2.12540         1.029695      0.847774      0.083002
Ti       9.43848      9.36148     14.40943        -1.032601     -0.151651      0.353574
Ti       9.42054      9.38015      6.24823        -1.033802     -1.053750      0.286107
Ti       9.33368      9.36121     10.37468        -0.281607      0.811426     -0.827392
O       2.03767      1.85921      0.26866        -0.451171      0.047142      1.081608
O       1.95603      1.74250     12.67819        -0.890830      0.426895     -0.155350
O       1.84010     13.13844      0.26976         0.214970      0.010017      0.934717
O       1.88358     13.11349     12.61282        -0.348813     -0.055532      0.070477
O      12.89209      1.81554      0.23711         0.393661      0.179462      1.462363
O      13.15433      1.73262     12.78759        -0.261248      0.529646     -1.609402
O      13.22979     13.14418      0.33689        -0.726868      0.148072      0.140896
O      13.08893     13.00787     12.61520        -0.186913      0.410319      0.576340
O       1.73359      1.89353      4.49031        -0.277254      0.016893     -0.359268
O       1.81640     13.08321      4.46950        -0.204189      0.027082      0.475229
O      13.15696      1.97244      4.26698        -0.267678     -0.456223      1.393893
O      13.24018     13.07690      4.37739        -0.549138     -0.055872      0.137871
O       1.78182      1.99313      8.51429         0.101987     -0.763254      0.048983
O       1.85801     13.00975      8.49855         0.118082      0.724026      0.564843
O      13.10675      1.75408      8.49498        -0.221305      0.164031      0.175830
O      13.06714     13.19688      8.51328         0.285852     -0.055405     -0.265275
O       1.65769      5.51766      0.28310         0.621710      0.537323      0.318585
O       1.73462      5.62516     12.61282         0.540260      0.061428      0.585133
O      13.16273      5.57458      0.27719        -0.365172      0.650281      0.093953
O      12.98768      5.65154     12.56853         0.511209     -0.393067      0.026948
O       1.92634      5.70930      4.40471        -0.033207     -0.518810      0.035989
O      13.07478      5.61150      4.48521        -0.118873     -0.020055     -0.789418
O       1.75824      5.60815      8.53990        -0.013879      0.186939      0.253498
O      13.14626      5.61347      8.53117        -0.100630      0.250903     -0.364059
O       1.94030      9.41501      0.28425        -0.083347     -0.625486      0.208706
O       1.79288      9.38319     12.66442         0.265754     -0.025513     -1.255959
O      13.07077      9.32640      0.30888        -0.067404     -0.466127      0.076522
O      13.12208      9.41026     12.59307         0.096100      0.090354     -0.298933
O       1.73432      9.30619      4.48385         0.531645     -0.071275     -0.592363
O      13.20191      9.25467      4.36577        -0.513091      0.623676      1.563603
O       1.85650      9.44317      8.45896        -0.113776     -0.647531      0.536205
O      13.08232      9.44125      8.49907         0.190066     -0.561300     -0.042467
O       5.42222      1.88408      0.27659         0.411734     -0.423720      1.117092
O       5.47314      1.83809     12.52991         0.382211      0.166140      0.994418
O       5.64311     13.07097      0.33671        -0.207092      0.220805      0.407814
O       5.65003     13.08415     12.65931         0.019984     -0.042753      0.133987
O       5.68549      1.84032      4.34979        -0.160480      0.497920      0.921727
O       5.61553     13.03593      4.38890         0.199977      0.476134      0.311778
O       5.57324      1.87415      8.49061         0.007325     -0.235549      0.275956
O       5.62547     13.15381      8.48613        -0.379220      0.094990     -0.414085
O       5.52038      5.57646      0.27124         0.585770      0.614866     -0.141586
O       5.58073      5.64498     12.60635        -0.315468     -0.143513     -0.383014
O       5.67059      5.53875      4.43338        -0.566540      0.015813      0.092057
O       5.68194      5.55452      8.50460        -0.452324      0.221443      0.249179
O       5.57785      9.25062      0.31422        -0.083199      0.438753      0.001214
O       5.54755      9.50294     12.56138         0.179404     -0.525355      0.333876
O       5.69847      9.39589      4.45568        -0.051260     -0.440521      0.198698
O       5.47529      9.38762      8.47409         0.491297     -0.315593     -0.339092
O       9.38583      1.81553      0.24871        -0.101189      0.417464     -0.813386
O       9.38560      1.94606     12.57052        -0.368805     -0.543303      0.690030
O       9.30173     13.02804      0.26661        -0.070488      0.328499     -0.310675
O       9.25409     13.15423     12.59137         0.259982     -0.102668      1.198930
O       9.38727      1.76753      4.41382        -0.086477     -0.018953     -0.737460
O       9.40986     13.07180      4.38775         0.198118      0.401386      0.743077
O       9.38542      1.90193      8.53134         0.261572      0.009270      0.208105
O       9.51140     13.05553      8.52949        -0.609906      0.228820      0.028789
O       9.29818      5.60328      0.28199         0.465229     -0.183090     -0.107110
O       9.30997      5.65053     12.48820         0.120060     -0.087662      0.430009
O       9.45580      5.75627      4.46068        -0.388503     -0.259676      0.219388
O       9.23545      5.61594      8.45294         0.125485     -0.185722      1.181848
O       9.41543      9.41562      0.30609         0.074511     -0.529086     -0.109485
O       9.30410      9.26946     12.64733        -0.000461      0.214845     -0.939312
O       9.36594      9.39665      4.47361        -0.159160     -0.512222     -0.568570
O       9.43872      9.45590      8.51730        -0.187889     -0.241077      1.188942
O       3.69529      1.93784      2.66240         0.621062      0.146242     -0.601351
O       3.68929      1.85188     14.65799         0.918096      0.374572      0.203191
O       3.74172     13.08155      2.55002        -0.202648      0.447560     -0.266450
O       3.68007     12.98927     14.74562         0.823312      0.073933     -0.267530
O      14.95803      1.93033      2.26531         0.111626     -0.255763      0.113371
O      14.99560      1.68244     14.84895        -0.572831      0.309801     -0.233480
O       0.01753     13.05636      2.33374        -0.044563      0.388504      0.434250
O      14.99716     13.22411     14.72111        -1.687219      0.013405     -0.224125
O       3.65537      1.80208      6.41261         2.059669     -0.348172      0.124411
O       3.74100     13.29922      6.38303         1.001700     -0.050433      0.445870
O      14.93712      1.97514      6.63003        -0.455643      0.119295     -0.520513
O      14.99797     13.02398      6.56248         0.696592     -0.569224      0.205600
O       3.64319      1.66074     10.48832         0.633482      0.183584      0.299048
O       3.72991     13.23404     10.69903        -0.584387     -0.353777     -0.537454
O      14.89504      1.97392     10.75345         1.215275     -0.481620     -0.160515
O      14.94230     12.98052     10.67892         0.189115      0.450146     -0.318504
O       3.69520      5.60375      2.31045         0.423692      0.002942      0.541706
O       3.77559      5.54025     14.80447        -1.749107     -0.039944     -0.346834
O      15.00358      5.69312      2.53632        -1.444010     -0.595652     -0.080448
O      14.98395      5.76918     14.65159        -0.107043     -0.166880     -0.052739
O       3.67840      5.68031      6.55687         0.903476     -0.208889     -0.303982
O      14.98818      5.35882      6.48175        -0.955559      0.435236     -0.081175
O       3.62276      5.61930     10.62392         0.791557      0.675615      0.068045
O      14.90166      5.50238     10.65891         0.599946     -0.083268     -0.007299
O       3.72598      9.30010      2.56177         0.565604      0.182266     -0.334449
O       3.74739      9.46246     14.62175        -0.210962      0.202252      0.220032
O      14.98134      9.29370      2.47280         0.929900      0.324211     -0.589094
O      14.99606      9.29425     14.77563        -0.049222     -0.182291     -0.156133
O       3.75913      9.15004      6.43470        -0.636792     -0.079552      0.044374
O       0.00088      9.61501      6.42115        -1.154774      0.076780      0.852553
O       3.73718      9.27093     10.61803        -1.231812      0.301270     -0.010588
O      14.99221      9.56814     10.61229        -0.412475     -0.493141     -0.332396
O       7.45310      1.84250      2.32193        -0.691714      0.078011      0.232650
O       7.45377      1.72393     14.76085        -0.722040      0.086143     -0.462508
O       7.41735     13.01700      2.53148         1.678245      0.038699     -0.298130
O       7.48607     13.22735     14.82551         0.041347     -0.102586     -0.592572
O       7.54893      1.93286      6.54260        -0.757184      0.380144     -0.424461
O       7.56984     12.92713      6.50653        -0.193195      0.484888     -0.505040
O       7.42918      1.98564     10.57540         0.713113      0.183776      0.058769
O       7.44417     13.07880     10.52039         0.943482      0.178437      0.446872
O       7.49231      5.58898      2.28646        -0.301226      0.186269      0.682960
O       7.43562      5.68583     14.69164         0.953159      0.153011      0.070421
O       7.47603      5.36227      6.41426         0.461514      0.418896      0.212868
O       7.37220      5.49450     10.69450         0.766061     -0.286442     -0.470325
O       7.52186      9.55419      2.46775        -0.342220     -0.644569     -0.408448
O       7.46797      9.35093     14.75757         0.164441     -0.752431     -0.203272
O       7.46944      9.52588      6.57844         0.750106     -0.119554      0.007707
O       7.41917      9.52076     10.64331         0.355517     -0.939988     -0.545098
O      11.13388      1.73160      2.35284         1.495369      0.125498      0.359098
O      11.18537      1.94823     14.64930        -0.659425      0.402754     -0.102998
O      11.15823     13.16300      2.27262         1.375479      0.906834      0.453173
O      11.19527     12.87606     14.75572        -0.071293      0.620766     -0.285008
O      11.28617      1.65857      6.46708         0.336340      0.464782     -0.151483
O      11.30261     13.28784      6.52728        -0.091429     -0.047397     -0.310195
O      11.25312      1.78535     10.65832        -0.520054      0.155155      0.288656
O      11.22209     13.11787     10.65357        -0.678704      0.109364      0.339478
O      11.25332      5.68544      2.38817        -1.086702     -0.427469      0.062009
O      11.21063      5.49109     14.55641        -0.141459      0.033428      0.587098
O      11.19889      5.85002      6.59488         1.088373     -0.273479     -0.274729
O      11.15731      5.87206     10.46344         0.462041     -0.309137      0.188806
O      11.22423      9.28274      2.53662         0.494157     -0.045511     -0.377867
O      11.27981      9.48955     14.60033        -0.333376     -0.322793      0.465573
O      11.26554      9.04175      6.42037         0.368843      0.511091      0.054086
O      11.20272      9.22276     10.67903        -0.099964      0.252329     -0.288391
O       1.80207      3.74663      2.41493         0.172520     -0.171968      0.273067
O       1.66063      3.72794     14.72620         0.582253     -0.065796     -0.575219
O       1.84179      0.02521      2.44267         0.213662     -0.291586     -0.049742
O       1.86928     14.94472     14.81297         0.479642      0.625418     -0.185988
O      13.04214      3.75588      2.31130        -0.139793     -0.266120      0.368480
O      13.18172      3.75745     14.68889         0.214705     -0.818528      0.053163
O      13.12198     14.98296      2.36057         0.039876      1.235457      0.607807
O      12.95285     14.97537     14.73788        -0.251526     -1.630904      0.138366
O       1.91190      3.75162      6.59976         0.187122      0.128300     -0.468661
O       1.73383     14.97103      6.54547        -0.247458      0.438932      0.208424
O      12.91163      3.76818      6.54115         0.012892     -0.773431     -0.277104
O      13.27904     14.95612      6.26581         0.140580      1.540959      0.468829
O       1.90110      3.72259     10.62403        -0.257434      0.356152      0.275235
O       1.68343     15.00134     10.65844        -0.149660     -0.336599     -0.458634
O      12.98173      3.68350     10.59345        -0.486528      1.463657      0.264675
O      13.03890     14.97936     10.67222         0.669637      0.233448      0.265280
O       1.86411      7.48869      2.29352         0.013872     -0.192598      0.240525
O       1.92470      7.50532     14.69013         0.201283     -0.251246      0.379427
O      13.08711      7.48213      2.39308         0.197192     -0.060999     -0.103603
O      13.06716      7.49025     14.52196        -0.583710      0.256863      0.942890
O       1.64510      7.45331      6.54177        -0.065706     -0.165640      0.452852
O      13.43391      7.51893      6.53027        -0.423688     -1.022765      0.062376
O       1.67364      7.51968     10.58441         0.186530      0.652702      0.168369
O      13.25097      7.51072     10.58855        -0.225291      0.023100      0.014870
O       1.84008     11.21788      2.38962         0.112099      0.295250      0.238679
O       1.69170     11.24888     14.86541         0.570797     -0.171399     -1.017952
O      12.99613     11.27045      2.31784         0.276847     -1.200785      0.398559
O      13.23232     11.24489     14.83737        -0.136162      0.120438     -0.642208
O       2.09207     11.17584      6.54090        -0.310606      0.678500     -0.359237
O      12.93023     11.24695      6.52098         0.085387     -0.669137     -0.207971
O       1.86629     11.24848     10.58835         0.744692      0.023995      0.346954
O      12.94139     11.27387     10.58345         0.090334     -1.122989     -0.044290
O       5.69955      3.76245      2.26348        -0.683134     -0.821247      0.902051
O       5.59538      3.72995     14.71606         0.472489     -0.070544     -0.325625
O       5.59337     14.97958      2.45793        -0.205646     -0.178542     -0.146895
O       5.44500     14.95390     14.71732         0.412557      0.871653     -0.012113
O       5.57797      3.67978      6.59547        -0.803511      0.054266     -0.604157
O       5.85291     14.99250      6.46820        -0.596940      0.551724     -0.237436
O       5.33181      3.73162     10.77294         0.542572     -0.141518     -0.852925
O       5.63817     15.00588     10.70509         0.268065      0.043700     -0.245728
O       5.65230      7.53247      2.37166         0.205308     -0.846175      0.451714
O       5.44192      7.52041     14.58223         0.290719      0.219401      0.413722
O       5.73711      7.41432      6.42323         0.243649      0.316513      0.622071
O       5.60647      7.46936     10.62249         0.048145      0.714058     -0.120190
O       5.51504     11.23609      2.51140        -0.062049     -1.274143     -0.266240
O       5.64976     11.24516     14.80120         0.255280     -0.213862     -0.240572
O       5.42287     11.24750      6.45802         0.315669      0.396242      0.030457
O       5.56628     11.28175     10.57468        -0.717292     -0.207153     -0.044049
O       9.31301      3.62301      2.59924         0.515363      1.489925     -0.996411
O       9.14566      3.76233     14.68692         0.555436     -0.759610     -0.336737
O       9.17279     14.95774      2.31119         0.265050     -0.514531      0.343269
O       9.45265     14.99699     14.73397        -0.010865     -0.387107     -0.388978
O       9.55509      3.74698      6.39533         0.157266     -0.101130      0.069069
O       9.26426     15.00296      6.39068        -0.057513     -1.062052      0.716148
O       9.53639      3.76001     10.75825        -0.490699      0.909275     -0.912777
O       9.39209      0.00123     10.71323        -0.631181      0.233542     -0.375643
O       9.31216      7.50031      2.27829        -0.247804      0.169425      0.336980
O       9.40588      7.43303     14.69971         0.004978      0.801175      0.245602
O       9.13887      7.55860      6.73418         0.135987     -0.994454     -0.853168
O       9.10164      7.48122     10.66147         0.126546      0.730290     -0.726722
O       9.56306     11.25224      2.43563        -0.940175     -0.489046      0.086457
O       9.19064     11.17659     14.70292         0.285312      1.274138     -0.389012
O       9.58273     11.20867      6.49259         0.007179      0.398617      0.165146
O       9.34454     11.25105     10.72144         0.485860     -0.523899     -0.264723
