  # total energy = -7878.77558733 
CRSYTAL
PRIMVEC
    15.3600000000000000    0.0000000000000000    0.0000000000000000
     0.0000000000000000   15.3600000000000000    0.0000000000000000
     0.0000000000000000    0.0000000000000000    17.440000000000000
PRESSURE
2.1044 1.71771 5.34371 -0.195705 -0.19548 -0.018464
PRIMCOORD
320 1
Pb       3.79961      3.85745      4.41204         0.137626     -0.566372     -0.117562
Pb       3.98383      3.77691     17.35173        -0.562829     -0.117062     -0.248951
Pb       3.79675     15.32017      4.37646         0.094926     -0.112100     -0.588949
Pb       3.91814      0.03660     17.39719        -1.230433     -0.532062     -0.293849
Pb      15.33490      3.82571      4.44017         0.270760     -0.285094     -0.352469
Pb       0.14163      3.86013      0.06226        -0.594035     -0.591608     -0.286529
Pb       0.05175     15.29144      4.33003         0.200454      0.212838     -0.337524
Pb      15.09032     15.29356      0.02275         0.797732      0.004349     -1.003783
Pb       3.74664      3.97849      8.53847         0.139849     -1.245467      1.315611
Pb       3.82559     15.34080      8.84644         0.248607      0.032451     -0.704822
Pb      15.03388      3.93027      8.61998         0.853436      0.046569     -0.169878
Pb      15.27379      0.19203      8.69766        -0.670971     -0.850778      0.078982
Pb       3.88352      3.75607     12.93296        -0.109800     -0.163891     -0.466171
Pb       3.74011     15.21231     12.93315        -0.000407      0.717147      0.212638
Pb      15.34466      3.67057     13.12908        -0.082501      0.135193     -0.602936
Pb       0.02693      0.02812     12.90239        -0.261574     -0.639284      0.921563
Pb       3.94743      7.67910      4.25013        -1.182031      0.293410      0.775372
Pb       3.67737      7.64321      0.04696         0.674142     -0.089849     -1.011843
Pb       0.22129      7.69835      4.29936        -0.974759      0.002506      0.306475
Pb      15.31010      7.79809     17.33049        -0.311384     -0.397168      0.171469
Pb       3.97387      7.61489      8.71842        -0.393068      0.680989     -0.038813
Pb      15.34056      7.63360      8.67756        -0.401957     -0.241507      0.043772
Pb       3.81158      7.63200     13.07013         0.187197     -0.278487     -0.573253
Pb       0.08358      7.69802     13.11665        -0.514723     -0.611842     -0.321066
Pb       3.62195     11.48266      4.31007         0.686339      0.173963     -0.108283
Pb       4.03595     11.29427     17.30823        -1.378362      0.953977      0.026083
Pb       0.18062     11.67209      4.15703        -1.109064     -0.461972      0.363411
Pb      15.25430     11.46597     17.29964         0.391621      0.338253      0.262168
Pb       3.77991     11.61056      8.72079         0.263779     -0.539977     -0.465208
Pb      15.34591     11.33912      8.66401        -0.054536      0.715749      0.216196
Pb       3.98062     11.49639     12.96192        -0.639175     -0.002956      0.267708
Pb       0.14289     11.46768     13.15314        -0.752951      1.021929     -0.068159
Pb       7.69833      3.71352      4.41427         0.030535     -0.224497     -0.502822
Pb       7.69480      3.90853     17.28399         0.028784     -0.391132      0.044652
Pb       7.68976      0.04060      4.34042         0.066724     -0.071498      0.130294
Pb       7.38137     15.32627     17.31695         1.216630      0.232944      0.345690
Pb       7.65560      3.81697      8.68980        -0.200617      0.073674     -0.116409
Pb       7.68130     15.24766      8.57803        -0.144673      0.728325      0.520890
Pb       7.83466      3.99774     13.27932        -0.457134     -0.734329     -0.753110
Pb       7.69346      0.15100     13.01939        -0.275898      0.023962      0.034128
Pb       7.53035      7.50003      4.26880         0.993832      0.406622     -0.592467
Pb       7.62503      7.64306     17.43463         0.131505     -0.038538     -0.300410
Pb       7.59102      7.87996      8.61549         0.257944     -0.755925      0.619793
Pb       7.61596      7.60454     12.96743        -0.226992      0.482131      0.148460
Pb       7.68592     11.38390      4.37164         0.280366      0.448131     -0.439872
Pb       7.53333     11.65541     17.30870         0.817690     -0.472681      0.225194
Pb       7.71245     11.48039      8.68386        -0.216621      0.061866      0.334489
Pb       7.89074     11.65910     13.06768        -0.732282     -1.031729     -0.486740
Pb      11.58947      3.75359      4.36874        -0.648030     -0.104765     -0.381732
Pb      11.55451      3.81767      0.04493         0.011565     -0.044231      0.100264
Pb      11.58956     15.35419      4.24973        -0.707624     -0.273021      0.415416
Pb      11.39558     15.28164     17.21195         0.151773      0.380917      0.947512
Pb      11.57812      4.07001      8.67771        -0.477526     -0.366150      0.109531
Pb      11.46667     15.27231      8.63671         0.302849      0.349043     -0.212548
Pb      11.54540      3.68924     13.30413        -0.066164      0.401835     -1.385656
Pb      11.41830     15.33267     13.04121         0.370692      0.105335     -0.305301
Pb      11.59080      7.69167      4.20296        -0.809640     -0.137410     -0.039788
Pb      11.41212      7.57744      0.00517         0.086396      0.284113      0.524815
Pb      11.56482      7.69428      8.63578        -0.267347     -0.877727      1.052176
Pb      11.38817      7.71373     13.00772         0.616692     -0.554026      0.021831
Pb      11.57476     11.36937      4.40492        -0.352042      0.699677     -0.800336
Pb      11.35766     11.49584     17.33565         0.155769     -0.547584      0.661600
Pb      11.49907     11.51559      8.86232        -0.035198      0.079027     -0.814437
Pb      11.46658     11.43962     12.95067         0.100854      0.251577     -0.020818
Ti       1.89682      1.92050      2.36905         0.597446     -0.926532      2.267344
Ti       1.80581      1.81939     15.42832         0.322885     -0.310516      2.378111
Ti       1.89736     13.35929      2.08274         0.849547      1.453991      3.244429
Ti       1.87168     13.34333     15.45564         0.031965      0.808065     -0.813864
Ti      13.42730      1.85167      2.26848        -0.035422      0.846916      0.472620
Ti      13.37751      1.87367     15.43704         1.096526     -0.328441      0.217770
Ti      13.36247     13.43163      2.22565        -0.293029     -0.482995      2.517671
Ti      13.27358     13.30678     15.35515         2.508980      0.879164      0.754954
Ti       1.89635      1.88302      6.77143        -0.609564      0.913448      0.505569
Ti       1.81871     13.50554      6.80187         0.564100     -0.746496      1.005268
Ti      13.34640      1.92137      6.58363        -0.750489     -0.820472      2.202885
Ti      13.46402     13.35357      6.70369        -0.701075      0.746940      1.165781
Ti       1.86018      1.88119     10.91663         0.958453      0.691487      3.003392
Ti       1.86828     13.36442     10.96661        -0.378865      0.584359      1.428455
Ti      13.37159      1.90154     10.96557        -0.892907      0.266447      0.580109
Ti      13.40801     13.45574     11.05792        -0.060343     -0.203598      1.406968
Ti       1.92125      5.64996      2.31250        -0.000850      0.828147      3.093988
Ti       1.87943      5.71002     15.43631         0.490000      0.067904      0.344586
Ti      13.49414      5.69727      2.35271        -0.718849      0.576820      1.885349
Ti      13.45913      5.69993     15.50575        -0.615253     -0.191289      0.391621
Ti       1.97175      5.82021      6.71397        -1.282842     -0.993244      1.533759
Ti      13.39723      5.80255      6.42370        -0.125529      0.027543      1.982388
Ti       1.83582      5.69600     11.07080         0.774306     -0.275117      1.770991
Ti      13.38743      5.77603     11.24361        -0.841442     -0.258082     -0.895530
Ti       1.86422      9.52253      2.12531        -0.017363      0.913830      2.763616
Ti       1.84379      9.56975     15.33436         1.366202      0.430721      3.475740
Ti      13.46316      9.62690      2.29544        -0.676081     -0.271229      1.698172
Ti      13.29519      9.52249     15.33089         0.037501      0.850889      0.356634
Ti       1.83946      9.57689      6.65294         1.343439      0.195329      2.117542
Ti      13.40558      9.54200      6.64347         0.070012      0.229237      2.325298
Ti       1.85002      9.57073     11.03540         0.923996     -0.567219      1.130475
Ti      13.47433      9.63093     11.12708        -2.127200     -0.826022      0.661978
Ti       5.75517      1.95870      2.34068         0.007100     -0.868105      1.132475
Ti       5.70697      1.85856     15.29328         0.544268      0.842697     -1.697034
Ti       5.78783     13.40786      2.38451        -0.611564      0.418609      0.458388
Ti       5.69870     13.36723     15.24069        -0.857276      0.678151      1.361858
Ti       5.73422      1.88349      6.77614        -0.003710      0.112076      0.323463
Ti       5.79343     13.37945      6.74675        -1.722012      0.521156      0.981244
Ti       5.82083      1.91168     10.95862        -1.028652      0.417298      0.144979
Ti       5.79961     13.47523     11.08045         0.020903     -1.007575      0.084036
Ti       5.68677      5.63068      2.30037         1.292128      0.489841      1.848452
Ti       5.68239      5.76578     15.34406         0.577976      0.051810      0.703684
Ti       5.78872      5.72510      6.60324        -0.324170     -0.140143      1.605276
Ti       5.72629      5.70203     11.00452        -1.405225      0.246396      1.518658
Ti       5.73201      9.62765      2.29494        -0.151235      0.215479      1.197047
Ti       5.76059      9.51232     15.29977        -0.137110     -0.369307      2.145196
Ti       5.71342      9.61044      6.63255        -1.443996      0.489380      2.074914
Ti       5.68779      9.55750     11.06143         1.217999      0.293370      0.160827
Ti       9.61107      1.79597      2.17944        -1.158638      0.831868      1.233948
Ti       9.57576      1.89318     15.42166        -0.908558     -0.054159      1.745600
Ti       9.52309     13.44368      2.35325         0.633659     -1.022455      0.954872
Ti       9.58423     13.41920     15.31217        -0.866130     -0.169670     -0.070609
Ti       9.60094      1.96587      6.73845        -0.362940     -0.456021     -0.254089
Ti       9.58687     13.42438      6.64129         0.516807     -0.254438      0.272862
Ti       9.55091      1.92304     10.90519         0.085314      0.463168      3.408691
Ti       9.54789     13.53549     10.97097         0.382658     -1.033159      0.520163
Ti       9.66601      5.57227      2.42999        -0.783676      0.819638     -0.593527
Ti       9.66867      5.77113     15.40171        -1.384331     -0.323045      1.377881
Ti       9.50009      5.75395      6.62421         0.937375      0.558488      2.767116
Ti       9.57447      5.69486     11.06876         0.876927     -0.514047      0.036853
Ti       9.57226      9.56271      2.24100        -0.093762     -0.380195      1.756146
Ti       9.52235      9.52879     15.36826         0.505103      0.110986      1.124900
Ti       9.63685      9.57229      6.69441        -0.482672     -0.367091      1.290961
Ti       9.55428      9.53284     11.05868        -0.797175      0.471289      0.104304
O       1.87314      1.98211      0.70307         0.098851      0.081863     -2.834905
O       1.75721      1.80214     13.74703         0.039914      0.398239     -1.929536
O       2.04495     13.42764      0.43753        -0.298562      0.136589     -2.149912
O       1.84354     13.35728     13.63534         0.113509      0.027609      0.636872
O      13.36920      1.76769      0.50062         0.251469      0.010668      0.483462
O      13.43192      2.00216     13.69689         0.110419     -0.096548     -0.561555
O      13.37681     13.50627      0.52460        -0.161532     -0.056514     -1.468409
O      13.26563     13.24130     13.65069        -0.062911      0.274288     -0.987262
O       1.90986      1.88664      5.03005        -0.115299     -0.145365     -0.885053
O       1.74291     13.47901      5.03978         0.031116     -0.027734     -0.542499
O      13.30574      1.98336      4.85072         0.128752     -0.292265     -0.762529
O      13.45514     13.40890      4.98612         0.325845     -0.085886     -0.996237
O       1.85501      1.93642      9.26137        -0.348202      0.007878     -2.907171
O       1.84593     13.32502      9.25582         0.249377      0.146568     -0.653507
O      13.31133      1.86958      9.17363         0.190369      0.386936      1.235831
O      13.31558     13.44697      9.36648        -0.067420     -0.100193     -1.521161
O       2.06191      5.63306      0.64998        -0.276118      0.446507     -2.714731
O       1.87326      5.65714     13.71348        -0.085569      0.256618     -0.904571
O      13.37724      5.67520      0.65315         0.121906     -0.026604     -2.045795
O      13.21430      5.70709     13.79667         0.677754     -0.268324     -0.503301
O       1.94081      5.80863      5.02560        -0.021813     -0.040847     -2.053395
O      13.30312      5.71617      4.69565         0.467407      0.047481     -0.129953
O       1.79831      5.71739      9.38531        -0.075131      0.085017     -2.108801
O      13.35627      5.71373      9.43617         0.176115     -0.101740      0.418627
O       1.95576      9.68105      0.44301        -0.059010     -0.885430     -1.818563
O       1.87391      9.61158     13.65911        -0.355180     -0.136868     -2.582217
O      13.57549      9.73553      0.62318        -0.521863     -0.472879     -2.213497
O      13.29779      9.62394     13.59443         0.152753     -0.151951     -0.040647
O       1.91059      9.60958      4.95184        -0.504248      0.011841     -1.789926
O      13.36648      9.57788      4.94996        -0.026724      0.102475     -1.616472
O       1.84483      9.46290      9.33089        -0.212657      0.340529     -0.373877
O      13.51780      9.52337      9.41729        -0.059913      0.032192     -1.696016
O       5.79587      2.01072      0.60041        -0.423862     -0.310092     -1.097235
O       5.81673      1.87565     13.48017        -0.518689     -0.054287      1.303926
O       5.77822     13.39200      0.60100         0.204210      0.245891     -0.404979
O       5.66178     13.31124     13.53577         0.186424      0.616422     -0.916137
O       5.80567      2.00265      5.02708        -0.235463     -0.350132     -0.265444
O       5.72693     13.37840      5.05990         0.042479     -0.222018     -1.893364
O       5.82471      1.77560      9.16976        -0.206923      0.511652      0.656422
O       5.64582     13.37561      9.34451         0.382794      0.341276     -0.591991
O       5.68334      5.58013      0.59225         0.108863      0.199697     -1.379154
O       5.69012      5.81973     13.61672        -0.182005     -0.167417     -0.384278
O       5.69845      5.62400      4.89564         0.100259      0.458641     -1.457014
O       5.71400      5.79857      9.31638         0.104432     -0.001659     -2.601454
O       5.79414      9.69688      0.56204        -0.102689     -0.387137     -0.892493
O       5.64878      9.40281     13.64368         0.253232      0.168663     -2.333953
O       5.55151      9.68566      4.93656         0.443210      0.073543     -1.509215
O       5.70313      9.58259      9.30990         0.082779     -0.138312     -0.865698
O       9.54235      2.00450      0.46029         0.084329     -0.285987     -1.280560
O       9.44308      1.75524     13.74054         0.303838      0.030608     -1.813685
O       9.50392     13.35996      0.62572        -0.034567     -0.141064     -1.439328
O       9.59160     13.56241     13.55285         0.130376     -0.553244      0.414213
O       9.55147      1.85407      4.97250        -0.008632      0.190082      0.088771
O       9.49217     13.48996      4.90349         0.242613     -0.324129      0.065537
O       9.44152      1.89348      9.22670         0.354940      0.314028     -1.613166
O       9.60609     13.44854      9.23709        -0.149896     -0.354296     -1.168403
O       9.68479      5.66660      0.64515        -0.227905     -0.394332      0.198578
O       9.64758      5.69141     13.69548        -0.143201      0.500250     -1.470847
O       9.45296      5.78228      4.94460         0.149040     -0.114084     -2.035110
O       9.79811      5.74960      9.31919        -0.826230     -0.411737      0.515489
O       9.57687      9.51984      0.52024        -0.142354      0.313331     -0.618367
O       9.50242      9.61937     13.65137         0.313528     -0.473217     -1.222114
O       9.59419      9.53661      4.99805        -0.043728      0.150474     -1.733084
O       9.49901      9.54386      9.30346        -0.049236      0.103987     -0.199489
O       3.88382      1.86467      2.83514        -0.546357      0.414961     -0.031072
O       3.88631      1.96224     15.76976        -1.489601     -0.405400      0.236100
O       3.75258     13.33380      2.77938         0.592713      0.605533     -0.161724
O       3.76592     13.47674     15.78389         1.696657     -0.385941     -0.231816
O       0.00539      2.04921      2.80831        -0.808775     -0.769212     -0.265393
O      15.24762      1.86484     15.89424         1.511523      0.226339      0.192011
O      15.29540     13.50148      2.66252         0.867067     -0.270469     -0.325664
O      15.31705     13.34814     15.79689        -0.480096      0.146085      0.139187
O       3.68507      1.81288      7.19604         1.868221      0.548936     -0.168089
O       3.72336     13.50164      7.12900         0.374607     -0.108948      0.310691
O      15.17159      1.92263      7.08538         0.752640      0.227617     -0.221577
O      15.29901     13.43703      7.30008         0.076160     -0.096216     -0.517568
O       3.73545      1.90695     11.40941         1.023207     -0.503793      0.005479
O       3.82421     13.36322     11.45468        -0.380748      0.232812     -0.273305
O      15.30048      1.86982     11.45555        -0.000383      0.379057     -0.439974
O      15.28706     13.44191     11.46953         0.441162      0.032745     -0.249222
O       3.84097      5.76056      2.77986        -0.784936     -0.365317     -0.123330
O       3.81770      5.87024     15.82476         0.009718     -0.653068      0.133360
O      15.34825      5.70068      2.82301         0.503623      0.173392     -0.357708
O      15.32935      5.80910     15.91432        -0.020731     -0.306249     -0.049590
O       3.85087      5.73583      7.13270        -0.091804      0.544101     -0.439896
O      15.25029      5.67685      6.95495        -0.113389      0.156667      0.127102
O       3.79350      5.76121     11.37859        -0.412535     -0.095218      0.655560
O      15.27721      5.78544     11.53404         0.617042     -0.210759      0.460831
O       3.66007      9.53609      2.69996         1.573682      0.641024     -0.208793
O       3.79000      9.52854     15.65544         0.631324      0.116871      0.728346
O      15.31680      9.63169      2.64392         0.961809     -0.456227      0.407517
O      15.32268      9.57148     15.81133        -0.331898      0.142809     -0.416996
O       3.70448      9.56262      7.06432         1.461663     -0.261386      0.346047
O      15.31962      9.53194      7.13586        -0.223637      0.003028     -0.243792
O       3.84248      9.56097     11.47776        -1.484464      0.436956     -0.059248
O      15.20875      9.47038     11.59806         3.300144      0.245662      0.041368
O       7.62943      1.93221      2.61778         0.303761     -0.298005      0.654384
O       7.57672      1.82018     15.72643         0.607602      0.047353      0.510916
O       7.70805     13.46882      2.86936        -1.257305     -0.604700     -0.268683
O       7.65823     13.47120     15.65849        -0.725788     -0.510520      0.210427
O       7.65688      1.95925      7.19117        -0.080189     -0.034084     -0.386083
O       7.64135     13.35440      7.12795         0.826226     -0.103227     -0.085246
O       7.61634      2.02559     11.46945         1.081248     -0.594311     -0.338288
O       7.74653     13.39786     11.51361        -1.443746      0.163386     -0.305299
O       7.65896      5.72104      2.72471        -0.729095     -0.107603      0.082056
O       7.68284      5.79906     15.73707        -0.671250     -0.453418      0.314889
O       7.61436      5.60565      7.04496         0.734913      0.688067      0.007014
O       7.48955      5.75002     11.52047         3.136432     -0.600107      0.139978
O       7.55752      9.52961      2.73116         0.696082      0.030185      0.099691
O       7.73868      9.51419     15.76640        -2.078813      0.179332      0.370916
O       7.58341      9.71562      7.12332         0.337211     -0.499366     -0.480454
O       7.61022      9.56692     11.57811         0.713512     -0.093078     -0.379904
O      11.43616      1.83445      2.57149         1.548801     -0.165355      0.340768
O      11.51499      1.89299     15.74960        -1.343617     -0.104615      0.164175
O      11.47656     13.44977      2.76125         0.573228      0.105010     -0.181682
O      11.46617     13.32662     15.89812        -0.742375      0.460868     -0.577269
O      11.38890      1.88777      7.16465         1.474130     -0.225790     -0.371843
O      11.47640     13.28941      7.02468         0.439636      0.441989      0.396135
O      11.40095      1.78683     11.59183         0.441926      0.566512     -0.907123
O      11.37011     13.43431     11.36104         1.586516      0.098454      0.609966
O      11.49919      5.65555      2.78750        -0.225124      0.066105     -0.034682
O      11.45549      5.75686     16.01253         1.343449     -0.468549     -0.544770
O      11.54884      5.87458      7.05581        -0.451025     -0.203346     -0.439470
O      11.46334      5.67430     11.63378        -0.328663      0.161718     -0.267529
O      11.47757      9.57918      2.70062        -0.032263      0.367634      0.004902
O      11.43891      9.58040     15.76791         0.911852     -0.444921      0.260639
O      11.49808      9.39326      7.17903         0.617862      1.404210     -0.829746
O      11.44355      9.57461     11.44431        -0.116518     -0.255539      0.019753
O       1.83991      3.84149      2.77855         0.750700      0.203599      0.449184
O       1.88149      3.87791     15.89106        -0.131812     -0.989586     -0.026262
O       2.01938      0.00690      2.69548        -0.951812     -0.562975      0.151958
O       1.86950     15.33313     15.83597         0.164187      0.454714      0.226364
O      13.31270      3.77910      2.75050         0.458462     -0.538430     -0.318815
O      13.47178      3.74090     15.95471        -0.371502      1.668053     -0.212836
O      13.52381      0.01863      2.84608        -0.517589     -0.208490     -0.771668
O      13.41558     15.29892     15.68023        -0.490230     -0.662603      0.556070
O       1.81803      3.84466      7.10272         0.315036      0.011751      0.087732
O       1.82682      0.02621      7.34840        -0.387532     -0.446308     -0.780358
O      13.21880      3.83864      7.00988         0.677410      0.514538     -0.481595
O      13.37012     15.33721      7.12374        -0.197229     -0.095885     -0.482138
O       1.95737      3.76411     11.41594        -0.929965      0.686755      0.452071
O       1.94510     15.32730     11.39855        -0.513266     -0.578084     -0.209872
O      13.31735      3.73477     11.56927         0.445445      0.266766     -0.202642
O      13.38757      0.05551     11.51939        -0.197576     -0.877549     -0.245226
O       1.89545      7.68959      2.84256         0.022335     -0.811669     -1.349293
O       1.89441      7.64503     15.85720        -0.320343      0.465075      0.121820
O      13.31813      7.62881      2.65442         0.669680      0.625356     -0.116845
O      13.44878      7.68564     15.79251        -0.186534     -0.367200      0.321361
O       1.84292      7.63273      7.13857        -0.091710      0.254943     -0.000677
O      13.45297      7.65360      7.15991         0.322797     -0.174070     -0.895389
O       1.99107      7.67957     11.48983        -1.151694      0.199021      0.282980
O      13.30160      7.64828     11.57376         0.227302     -0.206008      0.248596
O       1.92075     11.50220      2.52593        -0.686157     -0.333045      0.449401
O       1.97562     11.48614     15.89171        -0.568164     -0.727561     -0.667186
O      13.40189     11.55813      2.73975         0.006774     -0.045393     -0.011119
O      13.43218     11.47262     15.85301        -0.607299     -0.669264     -0.187739
O       1.95071     11.46918      7.15254        -0.957642      0.504938     -0.264599
O      13.47570     11.45784      7.17959        -0.546764     -0.455234     -0.197027
O       1.78309     11.53638     11.52369         0.360941     -1.380846     -0.674171
O      13.40692     11.49119     11.41708        -0.343011      0.760299      0.120957
O       5.66892      3.80257      2.87270         0.186571      0.326911     -0.519877
O       5.72866      3.77202     15.69214         0.201477      1.210171      0.209294
O       5.82251     15.27770      2.87663        -0.796960      0.649496     -0.583562
O       5.61121     15.31941     15.81397         0.693132     -0.371029     -0.476747
O       5.73486      3.86530      7.05021        -0.572176     -0.700074      0.554475
O       5.70953      0.00571      7.10350         0.269432     -0.592761      0.084641
O       5.70041      3.80956     11.28373        -0.437370     -0.496921      0.308695
O       5.76628     15.35257     11.38185        -0.123019     -0.122829      0.232621
O       5.58845      7.70015      2.73833         1.088479     -0.517877     -0.695790
O       5.72021      7.67280     15.84208         0.252521     -0.254242      0.304364
O       5.71588      7.66255      7.01896         0.308428      0.285134     -0.100891
O       5.74695      7.67464     11.35772        -0.364993     -0.102717      0.621230
O       5.74311     11.55461      2.63930        -0.010299     -1.176386      0.698869
O       5.76045     11.48710     15.64907         0.053433      0.001762      0.219982
O       5.66864     11.53144      7.22693        -0.134597     -0.606038     -0.335490
O       5.76041     11.52333     11.45623         0.144635     -0.147212      0.181717
O       9.54986      3.65275      2.84621         0.289222      1.242943     -0.328320
O       9.53208      3.80503     15.60171         0.030484      0.006469      0.672828
O       9.54777     15.31286      2.68786        -0.010895      0.671289      0.034711
O       9.51851     15.25993     15.76540         0.673656      0.357319      0.291510
O       9.68613      3.87623      7.09115        -0.566321      0.344202     -0.045714
O       9.58382     15.31478      7.07093        -0.353430     -0.301101      0.093034
O       9.59566      3.77448     11.69238        -0.382569      0.362869     -0.989866
O       9.47943      0.01877     11.34143        -0.076469      0.651810      0.141504
O       9.56616      7.61876      2.74075        -0.018323      0.371694     -0.046985
O       9.51830      7.57913     16.02835         0.646263      0.851291     -0.787135
O       9.47027      7.68135      7.19207        -0.172959     -0.618826     -0.478529
O       9.51300      7.54235     11.48028         0.103432      1.024255      0.029934
O       9.49671     11.47650      2.79895         0.213439     -0.588784     -0.184431
O       9.64712     11.43956     15.71225        -0.696048      1.179052      0.144091
O       9.67730     11.42170      7.08110        -0.490657      0.818044      0.277507
O       9.56725     11.44732     11.42492        -0.103588      0.394283     -0.082272
