  # total energy = -7880.73798170 
CRSYTAL
PRIMVEC
    15.3600000000000000    0.0000000000000000    0.0000000000000000
     0.0000000000000000   15.3600000000000000    0.0000000000000000
     0.0000000000000000    0.0000000000000000    17.440000000000000
PRESSURE
2.28229 2.55353 3.77422 -0.358963 -0.290149 -0.065701
PRIMCOORD
320 1
Pb       3.84275      3.82619      4.37921        -0.705215      0.243360     -0.638439
Pb       3.89656      3.83373     17.39596        -0.202867     -0.550433      0.025097
Pb       3.80985      0.02385      4.29180        -0.217623     -0.128020     -0.071338
Pb       3.66439      0.00486     17.37812         1.061581      0.078214      0.517466
Pb       0.03123      3.71492      4.34887         0.097015      1.091304      0.362409
Pb       0.07664      3.98289     17.39436         0.052489     -0.322375      0.234317
Pb       0.05592     15.35251      4.29303        -0.578363     -0.213000      0.821953
Pb      15.24307     15.29678     17.38604        -0.034217      0.113872      0.428697
Pb       3.75269      3.72820      8.74433         0.221764      0.049372      0.185674
Pb       3.90306      0.01529      8.56366        -0.496963     -0.258283      0.718046
Pb      15.21658      3.90811      8.64078         0.481576     -0.371999      0.508898
Pb      15.21226      0.01766      8.67082         0.507365     -0.129646      0.432585
Pb       3.68879      3.71496     13.09199         0.480429     -0.071408     -0.543271
Pb       3.71467     15.31222     12.96250         0.379552      0.080642      0.289281
Pb       0.03516      3.79255     13.05940        -0.247670      0.291119     -0.383820
Pb       0.01178     15.32811     13.05500        -0.181829     -0.359047     -0.365835
Pb       3.85957      7.64695      4.32878        -0.429302      0.373418     -0.536436
Pb       3.79424      7.57189     17.35272         0.107900      0.319692      0.459815
Pb       0.08605      7.81902      4.36220         0.134959     -0.333402     -0.323077
Pb      15.12837      7.68514     17.36372         0.371427      0.609481      0.515467
Pb       3.87354      7.70217      8.67375        -0.064600      0.151361      0.487893
Pb       0.07257      7.59250      8.63055        -0.245353      0.125096      0.139284
Pb       3.78928      7.56540     12.95855         0.491182      0.468419      0.164205
Pb       0.01702      7.62608     13.10182        -0.057171      0.000853      0.065185
Pb       3.79926     11.59815      4.21082        -0.309347     -0.610210      0.234533
Pb       3.98483     11.58997     17.39966        -0.572294     -0.043203      0.250170
Pb      15.35343     11.57298      4.37570         0.381201     -0.770063     -0.786828
Pb      15.28981     11.59932     17.26606         0.127913     -0.881164      1.078470
Pb       3.87113     11.54605      8.60494        -0.254594     -0.287156     -0.144158
Pb      15.24676     11.40844      8.67620         0.277934     -0.018355     -0.140348
Pb       3.88437     11.49301     13.16542         0.131151     -0.079889     -0.450787
Pb       0.12388     11.58956     13.07417        -0.392015     -0.474902      0.377008
Pb       7.72754      3.73160      4.38567         0.177665      0.793675     -0.131948
Pb       7.66731      3.90269     17.37011        -0.204202     -0.454362      0.668744
Pb       7.72930      0.04613      4.35006        -0.454217     -0.215061      0.017664
Pb       7.61114      0.08733     17.30731         0.048992     -0.285849      0.206606
Pb       7.67077      3.77817      8.77299        -0.831776      0.070698     -0.177497
Pb       7.64997     15.18101      8.67642        -0.285472      0.483460      0.087519
Pb       7.83076      3.88130     13.13110        -0.137972      0.430076     -0.662750
Pb       7.62318      0.13406     13.04543         0.233557     -1.181127      0.309016
Pb       7.70344      7.53114      4.30218         0.145336      0.331332      0.440549
Pb       7.63195      7.77519     17.37193         0.202842     -0.030968      0.588604
Pb       7.65608      7.70000      8.63574        -0.089903     -0.171682      0.444676
Pb       7.53785      7.69686     13.00617         0.419551     -0.005601     -0.110773
Pb       7.65727     11.55697      4.30285        -0.577857     -0.689886      0.663217
Pb       7.76328     11.50144      0.01855        -0.086794     -0.063893     -0.199353
Pb       7.45980     11.55815      8.52820         0.868426     -0.186954      0.740272
Pb       7.72384     11.44045     13.04025         0.080217      0.066706      0.081932
Pb      11.43778      3.80624      4.29114         0.110672     -0.180998      0.781112
Pb      11.75436      3.87745     17.43681        -0.911961      0.165232      0.248286
Pb      11.47007     15.23788      4.30000         0.698160      0.937282      0.130548
Pb      11.38621     15.28395      0.00245         0.474292      0.157648     -0.258311
Pb      11.35700      3.87941      8.69651         0.944809     -0.382576     -0.157351
Pb      11.54139     15.31765      8.69548        -0.184210      0.019789      0.201179
Pb      11.61253      3.72623     13.09957        -0.200849      0.464860     -0.580303
Pb      11.60932      0.00444     12.94678        -0.653885     -0.841554      0.707352
Pb      11.46864      7.67861      4.28754         0.381146     -0.392226      1.127513
Pb      11.57796      7.63836     17.37414         0.071322      0.167726      0.031916
Pb      11.46928      7.68402      8.71750         0.210045     -0.170680     -0.412208
Pb      11.39337      7.67592     13.04549         0.163114     -0.001365     -0.279223
Pb      11.59521     11.43800      4.29152        -0.127839      0.079001      0.368267
Pb      11.42810     11.40247     17.35357         0.299502      0.592161      0.508252
Pb      11.65137     11.48793      8.55887        -0.901857      0.060569      1.353800
Pb      11.54369     11.44789     12.99151        -0.473169      0.484092      0.314345
Ti       1.80855      1.83300      2.30607         1.331121      1.358845      0.147541
Ti       1.80011      1.87715     15.45069         1.415386      0.023786      0.475388
Ti       1.85915     13.43017      2.17631         0.523421     -1.109827     -0.132188
Ti       1.85755     13.46336     15.44911         0.792108     -1.047619      1.273235
Ti      13.44540      1.97425      2.34078        -1.629902     -0.550322      1.962141
Ti      13.42036      1.93173     15.46647        -0.475292     -1.373651     -0.351593
Ti      13.44308     13.47649      2.30033        -0.500752     -0.063771      0.869254
Ti      13.33634     13.42162     15.36373         0.315586      0.534610      0.198742
Ti       1.84800      1.89810      6.74395         0.373133     -0.410178      0.052286
Ti       1.75002     13.46173      6.69683         1.255898     -0.900207      0.875511
Ti      13.39820      1.91844      6.70371        -0.494362     -0.228953     -0.649567
Ti      13.37085     13.44398      6.72488         0.115807     -0.869134     -1.409281
Ti       1.76490      1.82752     11.02187         1.610628      0.525574     -0.561920
Ti       1.93774     13.28983     10.97926        -0.670772      1.014114      0.654354
Ti      13.40262      1.85276     11.00080         0.213243      0.386535      0.159819
Ti      13.36210     13.26993     11.05827         0.509447      0.767331      0.574174
Ti       1.83247      5.75052      2.25765         0.266727      0.495802      2.974987
Ti       1.92121      5.82237     15.37488         0.446934     -0.827222      0.448682
Ti      13.42058      5.78351      2.57235         1.353395     -0.326984     -0.003861
Ti      13.45503      5.70571     15.31968        -0.857987      1.799663      1.075477
Ti       1.97592      5.70665      6.86306        -1.182832      0.279104     -1.705120
Ti      13.40224      5.66279      6.62144         0.086333      1.443113      0.258591
Ti       1.86343      5.74167     11.03322         0.165849     -0.427921      0.824810
Ti      13.40646      5.75246     11.00632         0.224080     -0.539596      2.104943
Ti       1.94275      9.57980      2.16044        -0.629490      0.321712      1.871024
Ti       1.92880      9.61145     15.46524        -0.777516      0.418792      1.016194
Ti      13.40970      9.62361      2.39078         1.598310     -0.927978     -0.525718
Ti      13.42061      9.70873     15.30772         0.310873     -1.866993      0.989176
Ti       1.94243      9.59035      6.66104         0.365882     -0.507087     -0.412339
Ti      13.44144      9.40680      6.70014         0.911779      0.576972     -0.519958
Ti       1.90663      9.53257     11.03105         1.240790     -0.096298      0.864633
Ti      13.55655      9.49853     11.08913        -0.984187      1.299407      0.815015
Ti       5.75950      1.92681      2.37083        -0.882787     -0.696967     -1.144003
Ti       5.74291      1.88375     15.39776        -1.560944     -0.114529      2.280149
Ti       5.77493     13.51123      2.39515        -1.168363     -0.583140      0.541736
Ti       5.80213     13.43470     15.38806        -0.656299      0.170111     -1.533574
Ti       5.74808      1.89022      6.66467        -0.364701      0.236207      1.707646
Ti       5.64680     13.41119      6.57148         0.441553     -0.048375      0.297247
Ti       5.72108      1.94338     11.03081        -0.670596     -0.627833      0.762423
Ti       5.72393     13.44667     11.12438        -0.116443     -0.326127      0.888141
Ti       5.77274      5.68750      2.32679        -1.017272      0.365954      0.133834
Ti       5.81932      5.72499     15.38643        -1.513039      0.227999      0.269102
Ti       5.74513      5.67735      6.69590        -0.108324     -0.151999      1.672833
Ti       5.74696      5.74119     11.00811         0.037254      0.035095      1.359429
Ti       5.79847      9.53866      2.32258        -0.705781      1.170717      0.225804
Ti       5.71547      9.58206     15.48703         0.596154     -0.148058     -0.292509
Ti       5.79016      9.48434      6.64701        -0.636404      0.789396     -1.286614
Ti       5.78300      9.63258     11.04688        -0.291044     -1.061213      1.078301
Ti       9.59680      1.90408      2.22027         0.425370      0.466118     -0.933513
Ti       9.58377      2.00605     15.43160         0.416929     -0.795265      1.259906
Ti       9.59326     13.41528      2.46216        -0.714859     -0.588154     -1.736789
Ti       9.59303     13.48828     15.40001         0.411968     -0.138765     -1.863652
Ti       9.55093      1.87794      6.74044         0.318028     -0.380436      1.086547
Ti       9.55832     13.49024      6.70275        -0.444016     -1.204710      1.690556
Ti       9.55641      1.88752     11.02010        -0.262221     -0.343497      1.914743
Ti       9.48662     13.44751     11.04633         0.723752     -0.874026      2.033639
Ti       9.61982      5.71757      2.30307        -0.414735      0.166910      1.719810
Ti       9.54920      5.75710     15.51216         2.037628      0.331816     -1.422263
Ti       9.55370      5.67184      6.79240        -0.217239      1.227175     -2.699160
Ti       9.63668      5.72157     10.99109        -0.705544      0.596871      3.241310
Ti       9.60285      9.58194      2.36203        -0.569484     -0.185792      0.006746
Ti       9.64304      9.58439     15.41630        -0.841027     -0.080376      0.531144
Ti       9.63882      9.65628      6.78096        -0.926405     -0.337062      0.477881
Ti       9.67536      9.62284     10.91110        -0.752847     -0.244129      2.775196
O       1.87328      1.92408      0.56845        -0.552359     -0.059050     -0.003558
O       1.86781      1.71114     13.69673        -0.208631      0.219469     -0.680617
O       1.87877     13.37119      0.40465        -0.097370      0.118623      0.642024
O       1.87127     13.45957     13.71067         0.087329     -0.058034     -0.941696
O      13.45372      2.00445      0.64365        -0.007496      0.636980     -2.424668
O      13.38389      1.72312     13.72001         0.460641      0.570875     -0.151034
O      13.35370     13.47386      0.60315        -0.155297     -0.309407     -1.139314
O      13.23109     13.33068     13.62325         0.715932      0.670694     -0.263344
O       1.90515      1.84779      4.97442        -0.258863     -0.158830     -0.585861
O       1.85229     13.51123      4.97941        -0.378485      0.056612     -0.913087
O      13.30256      1.77105      4.96524         0.284543      0.154385      0.198380
O      13.36338     13.43971      4.92652         0.061244     -0.089835      0.490918
O       1.87037      1.92489      9.25351        -0.394350     -0.337686      0.689427
O       1.80591     13.26153      9.25921         0.288321     -0.112711     -0.799193
O      13.36800      1.79760      9.24114         0.185257      0.339253     -0.508798
O      13.37526     13.27781      9.31023         0.262767      0.161024     -1.499603
O       1.88427      5.79782      0.56002        -0.062802     -0.447989     -2.231783
O       1.84332      5.68981     13.63460         0.152920      0.299112      0.001255
O      13.53430      5.71538      0.82004        -0.581482     -0.480779     -1.584559
O      13.43308      5.75446     13.62172        -0.232182     -0.190058     -1.406521
O       1.82783      5.75894      5.11119         0.763954     -0.204558      0.008236
O      13.36430      5.82658      4.91892         0.609003     -0.336062     -1.234745
O       1.68251      5.75242      9.31016         0.548558     -0.216063     -1.088031
O      13.41450      5.61510      9.31123        -0.194194      0.337527     -1.523324
O       1.82426      9.61204      0.44927         0.153944     -0.035506     -0.987291
O       2.00929      9.65652     13.75031        -0.229608     -0.149107     -1.000800
O      13.50492      9.60424      0.64151        -0.545532     -0.169164     -0.484051
O      13.42679      9.61484     13.60346        -0.098242     -0.188553     -1.093614
O       1.96039      9.56369      4.88123        -0.223701     -0.294236      0.714908
O      13.55244      9.54408      4.93196        -0.566545      0.018237     -0.081948
O       1.99691      9.42475      9.29160        -0.499210      0.519230      0.034271
O      13.52034      9.56877      9.34973        -0.188448     -0.224516     -0.824704
O       5.68722      1.92754      0.61361         0.515307     -0.094305     -0.103443
O       5.50931      2.00884     13.74381         0.502657     -0.264872     -2.617356
O       5.78062     13.49682      0.67193         0.281174     -0.321632     -1.119600
O       5.63155     13.40310     13.58160         0.300938      0.092669      0.972600
O       5.63045      1.93567      4.94367         0.203211      0.079680     -0.977262
O       5.60038     13.52095      4.85621         0.177103     -0.123514     -0.859345
O       5.80056      1.82176      9.30592        -0.348275      0.210403     -0.862284
O       5.66138     13.26767      9.39651         0.141394      0.339129     -1.582692
O       5.68117      5.54674      0.58190         0.294166      0.623815     -0.126588
O       5.72925      5.86375     13.64796         0.415228     -0.563592      0.175919
O       5.73462      5.65326      4.97073        -0.145357     -0.105362     -1.146768
O       5.89152      5.83719      9.30591        -0.236958     -0.397304     -0.946792
O       5.75484      9.71481      0.57089         0.145103     -0.158537     -0.880577
O       5.94562      9.51538     13.74304        -0.696251      0.031455     -0.080438
O       5.74697      9.47007      4.87892         0.114453      0.054879      0.241924
O       5.64978      9.51813      9.34296         0.490144      0.306261     -2.037656
O       9.64772      1.96766      0.40431        -0.228429     -0.327911      1.450800
O       9.45508      1.95308     13.70839         0.130999      0.494849     -1.451085
O       9.55669     13.30575      0.66456         0.133930      0.313000      0.567716
O       9.67159     13.50053     13.63940        -0.264893     -0.336155      0.469070
O       9.47336      1.85158      5.04053         0.144157      0.034393     -1.704507
O       9.38299     13.43924      5.02395         0.659033      0.304444     -2.745732
O       9.36874      1.88870      9.33151         0.801196     -0.073395     -1.588731
O       9.57268     13.47706      9.35913        -0.258289      0.155101     -2.080840
O       9.45590      5.78270      0.61764         0.484714     -0.087502     -1.470339
O       9.70740      5.59582     13.71583        -0.613402      0.112020      0.224974
O       9.29488      5.68358      4.96590         0.541038     -0.149521      1.077776
O       9.62533      5.62603      9.31614        -0.066863     -0.158269     -3.596648
O       9.57983      9.71399      0.61953         0.311764     -0.040995     -0.628364
O       9.51671      9.63705     13.70441         0.367182     -0.583395     -0.765838
O       9.43547      9.51094      5.08193         0.631179      0.196365     -1.025229
O       9.62778      9.67486      9.21292         0.178479     -0.467485     -1.449071
O       3.74299      1.76627      2.64348        -0.565331      0.580602      0.507458
O       3.80992      1.80549     15.86959        -0.343465      0.125522      0.007672
O       3.69018     13.52272      2.67002         0.759175     -0.078392      0.178029
O       3.86434     13.45586     15.88018        -0.468118      0.044478     -0.358045
O      15.22377      1.80581      2.88944         1.265251      0.754334     -0.546049
O      15.31339      2.00116     15.82753        -0.453168     -0.567231      0.213098
O      15.33158     13.38448      2.53069        -1.025910      0.041487      0.779327
O      15.28881     13.43958     15.78707        -0.454644      0.347327     -0.255576
O       3.75017      1.89830      7.16857         0.864860     -0.410288     -0.137445
O       3.81527     13.36580      7.01943        -0.868155      0.342643      0.446794
O      15.34365      1.89456      7.09487        -1.601001     -0.279644      0.105412
O      15.25285     13.23829      7.12393        -0.164483      0.519352     -0.149835
O       3.74682      1.80758     11.50148        -0.389788      0.660000     -0.271150
O       3.81464     13.27727     11.44365        -0.598920      0.252707      0.149809
O      15.28781      1.90721     11.58854         0.409925     -0.622199     -0.438756
O      15.31438     13.28769     11.53342         0.329399      0.679539     -0.337615
O       3.81060      5.71734      2.79491        -0.026149      0.257028     -0.086877
O       3.86025      5.65749     15.76115        -0.616272      0.557956      0.140619
O       0.00114      5.65316      2.80019        -0.169597      0.351662      0.265888
O      15.34453      5.79239     15.79651         0.164834     -0.409872     -0.104937
O       3.83412      5.69302      7.30042         0.441820     -0.364090     -0.496036
O      15.34832      5.69855      7.14769        -0.563435      0.037917      0.045218
O       3.77202      5.80408     11.35133         0.264969     -0.410859      0.065776
O      15.32939      5.80809     11.51720        -0.419516     -0.074936     -0.004070
O       3.81286      9.45952      2.62041        -0.035493      0.627148      0.131983
O       3.79416      9.61010     15.84296         0.702220      0.070931      0.182323
O      15.32889      9.76761      2.74368         0.238740     -0.791859      0.310214
O      15.25404      9.54723     15.78455         0.675806      0.106847     -0.081155
O       3.88967      9.47629      7.09116        -0.475111      0.482570      0.004881
O       0.01159      9.44455      7.10137        -0.039549      0.197807     -0.054658
O       3.87426      9.45720     11.43380        -0.871650      0.682057      0.426046
O       0.04968      9.46966     11.62403         0.087199      0.677783     -0.738954
O       7.69592      1.82527      2.70367        -0.069672      0.402072      0.041141
O       7.60098      1.95321     15.76823         0.977861      0.025936      0.187894
O       7.58005     13.44905      2.87221         1.392994      0.104129     -0.183877
O       7.73662     13.48092     15.67684        -0.985556     -0.439536      0.728036
O       7.62970      1.83422      7.07040        -0.172835      0.280744      0.097971
O       7.61922     13.42949      7.00889        -0.464476      0.232030      0.609319
O       7.63116      1.75022     11.43925        -0.025363      1.219884      0.123016
O       7.58669     13.44280     11.46756         0.878157      0.100147      0.082727
O       7.61618      5.70860      2.79010         0.289018     -0.057154     -0.384073
O       7.71872      5.87974     15.85343        -1.603303     -0.579191     -0.155788
O       7.59887      5.49472      7.10800         0.418591      0.887943      0.305946
O       7.70253      5.74322     11.45119        -0.184538     -0.550383      0.215237
O       7.71728      9.65099      2.59286        -0.148970     -0.677236      0.575090
O       7.67258      9.55193     15.88310         0.013153      0.414564      0.156998
O       7.64153      9.54539      7.17657         0.351648      0.178113      0.014243
O       7.69109      9.52725     11.49616         0.778219     -0.240043     -0.451011
O      11.45313      1.98226      2.74315        -0.819722     -0.271175     -0.224646
O      11.51110      1.95512     15.64813        -0.280010      0.454467      0.815128
O      11.45220     13.33149      2.84832        -0.006082      0.242159     -0.099568
O      11.53085     13.51269     15.80783        -0.717249     -0.353413      0.645471
O      11.49740      1.77844      7.07940        -0.320132      0.512794      0.534292
O      11.46323     13.38630      7.06080         0.700913      0.068867      0.114040
O      11.55530      1.85199     11.46108        -1.404510      0.702607     -0.290793
O      11.53222     13.40705     11.42147        -0.898856     -0.115157      0.022973
O      11.53297      5.72462      2.92221        -1.259138     -0.261661     -0.744859
O      11.46682      5.81266     15.84499         1.092678     -0.662025      0.396675
O      11.47182      5.71616      6.80890        -0.658510     -0.314394      1.467880
O      11.50711      5.57643     11.34008         0.568557      0.387352      0.573037
O      11.49766      9.45827      2.77183        -0.298704      0.989459      0.184876
O      11.53548      9.62118     15.86753        -0.245482     -0.374339     -0.217279
O      11.58168      9.49891      7.23227        -1.382938     -0.058168     -0.627705
O      11.54485      9.57093     11.67079        -0.743436     -0.223132     -1.515056
O       1.76959      3.88310      2.78397         0.678700     -1.756237     -0.304339
O       1.91444      3.70714     15.72129        -0.106752      1.794369      0.291884
O       1.66648     15.32708      2.68211         0.761708     -0.017979     -0.295334
O       1.81503     15.27878     15.97147        -0.217175      1.147699     -0.641905
O      13.35758      3.80982      2.98658         0.433717     -0.355793     -0.591808
O      13.37575      3.88228     15.77161         0.344578     -0.517768      0.190623
O      13.20711      0.05566      2.55270         0.371618     -1.344276      0.750621
O      13.39892      0.00217     16.01934        -0.124199      0.393960     -0.803130
O       1.82579      3.71204      7.12278         0.520830      1.378753      0.377474
O       1.73199     15.29165      7.16921         0.488997     -0.033763     -0.045498
O      13.34267      3.84392      7.06760         0.101159     -1.393426      0.185234
O      13.38311     15.29228      7.09717         0.409551     -0.198389      0.228646
O       1.85786      3.81875     11.45167        -0.151829     -0.403828      0.226013
O       1.84725     15.28976     11.33158        -0.273581     -0.349992      0.329210
O      13.53619      3.79860     11.43858        -0.463470      0.056824      0.279711
O      13.35543     15.34057     11.33036         0.874368     -0.544659      0.346797
O       1.79172      7.71568      2.65251         0.140886     -0.688993      0.082729
O       1.98300      7.66769     15.80704        -0.371922     -0.518734     -0.294324
O      13.48276      7.63216      2.71795        -0.189079      0.997708      0.611706
O      13.36561      7.66089     15.81205         0.022328     -0.328630     -0.112077
O       1.96156      7.60735      7.14322        -0.171471      0.390185      0.203193
O      13.36600      7.55768      7.08153         0.131064      0.232213      0.575290
O       1.90986      7.63068     11.56705        -0.386660      0.478601     -0.334775
O      13.35653      7.72269     11.44727        -0.077805     -2.272086      0.214104
O       1.89775     11.50916      2.78592         0.158423      0.629489     -0.575482
O       1.77143     11.53481     15.85964         0.730845     -0.046701     -0.562077
O      13.32856     11.45170      2.70756        -0.256047      1.780084      0.560179
O      13.37837     11.52504     15.70768        -0.046643      0.804636      0.378642
O       1.88364     11.42156      6.93616         0.034170      0.772074      0.656829
O      13.36896     11.31796      7.11801         0.635969      1.419767     -0.377004
O       1.94179     11.48441     11.56083        -0.177334     -1.174586     -0.410172
O      13.39968     11.42014     11.43053         0.268622      0.152729      0.151779
O       5.63067      3.77342      2.71063         0.420036      0.452486      0.586481
O       5.68984      3.82448     15.86998         0.794366      0.358875     -0.475495
O       5.67305      0.02495      2.78375         0.507059     -0.132696      0.253194
O       5.81829     15.30361     15.82226        -0.160939      0.503485     -0.102847
O       5.66965      3.77600      7.27340         0.015187     -0.495472     -0.642648
O       5.70788     15.32192      7.03193        -0.119440      0.186074      0.221419
O       5.57713      3.78827     11.45548         0.663766      0.377744     -0.148562
O       5.61602     15.34510     11.41143         0.305933     -0.081799      0.285818
O       5.75486      7.72914      2.65310         0.238959     -2.091813      0.192723
O       5.71890      7.65323     15.92785        -0.055108     -0.253000     -0.196160
O       5.74817      7.63571      6.99988         0.407060     -1.180418      0.444107
O       5.74453      7.62132     11.44968         0.273788      0.074177      0.364780
O       5.70975     11.49809      2.84207        -0.086276      0.437103     -0.461634
O       5.64429     11.53851     15.70687         0.733987     -0.343632      0.496328
O       5.74496     11.49087      6.95225        -0.202088     -0.088924      0.305723
O       5.87142     11.42694     11.49431        -0.738082      0.867176      0.262413
O       9.50294      3.83558      2.69371         0.145840     -0.800282      0.106711
O       9.52767      3.90771     15.94346         0.159797     -0.700022     -0.466604
O       9.55525     15.33057      2.71081         0.278593      0.082596      0.087500
O       9.61367      0.03702     15.70648        -0.182182      0.360692      0.865595
O       9.59690      3.77523      7.09713        -0.018019     -0.343608      0.640591
O       9.59597     15.32622      7.18033        -0.276947      0.213284      0.140497
O       9.56448      3.79950     11.42646        -0.164093     -1.125739      0.306158
O       9.50508     15.28514     11.52181         0.505725      1.339901     -0.264698
O       9.72430      7.58523      2.79392        -1.440166      0.731603     -0.380690
O       9.65270      7.68413     15.93461        -0.268721      0.358033     -0.248060
O       9.53932      7.59669      7.10443         0.063943      0.122687      0.689967
O       9.67912      7.63758     11.23400         0.228457      0.267090      0.439662
O       9.48624     11.46734      2.85761         0.943391      0.417407     -0.024580
O       9.60911     11.49601     15.78611        -0.008152      0.303306      0.443030
O       9.50229     11.55302      7.12097         0.543969     -0.613311     -0.191943
O       9.55331     11.45410     11.44641         0.106885      0.537789     -0.109945
