  # total energy = -7880.56509204 
CRSYTAL
PRIMVEC
    15.3600000000000000    0.0000000000000000    0.0000000000000000
     0.0000000000000000   15.3600000000000000    0.0000000000000000
     0.0000000000000000    0.0000000000000000    17.440000000000000
PRESSURE
2.06048 1.67833 2.13633 -0.172373 -0.287527 -0.016859
PRIMCOORD
320 1
Pb       3.79923      3.85789      4.40856         0.158751     -0.510370      0.062466
Pb       3.98414      3.78072     17.34842        -0.385622     -0.162956      0.029406
Pb       3.79907     15.32216      4.37122         0.000082     -0.087470     -0.404354
Pb       3.91966      0.03742     17.39671        -1.115181     -0.519387     -0.142092
Pb      15.33185      3.82695      4.43649         0.313114     -0.268657     -0.305225
Pb       0.13769      3.85861      0.05935        -0.587271     -0.517272     -0.181319
Pb       0.04940     15.29253      4.32737         0.220846      0.195949     -0.165506
Pb      15.09287     15.29657      0.01983         0.732273     -0.091531     -0.888720
Pb       3.74964      3.97598      8.53524         0.056293     -1.049549      1.473305
Pb       3.82507     15.33925      8.84410         0.241547     -0.002076     -0.556756
Pb      15.03581      3.92545      8.61608         0.973121      0.221387      0.044097
Pb      15.27600      0.19039      8.69190        -0.716823     -0.928934      0.300779
Pb       3.88464      3.75647     12.93280        -0.126090     -0.110995     -0.373661
Pb       3.74388     15.21298     12.93596        -0.042093      0.664905      0.303912
Pb      15.34146      3.67303     13.12511        -0.091914      0.171890     -0.432422
Pb       0.02447      0.02989     12.90062        -0.172595     -0.627146      1.034070
Pb       3.94612      7.68197      4.24906        -1.105791      0.107575      0.842767
Pb       3.68140      7.64581      0.04579         0.552181     -0.005375     -0.891561
Pb       0.21794      7.69600      4.29765        -0.904402      0.168492      0.472266
Pb      15.31464      7.80026     17.32741        -0.256158     -0.378629      0.411826
Pb       3.97327      7.61340      8.71417        -0.413587      0.604780      0.145148
Pb      15.34025      7.63296      8.67483        -0.371370     -0.235342      0.203703
Pb       3.81359      7.63457     13.07008         0.094278     -0.246114     -0.503607
Pb       0.08191      7.69886     13.11113        -0.439333     -0.549758     -0.154464
Pb       3.62602     11.48119      4.30863         0.512243      0.195600      0.003970
Pb       4.03322     11.29512     17.30639        -1.185856      0.811461      0.214144
Pb       0.17987     11.67062      4.15484        -1.052995     -0.527516      0.513823
Pb      15.25858     11.46440     17.29959         0.323473      0.313436      0.458812
Pb       3.78032     11.61024      8.71878         0.218323     -0.493539     -0.283608
Pb      15.34783     11.34075      8.65900        -0.056439      0.704784      0.496084
Pb       3.98110     11.49901     12.96172        -0.694711     -0.136363      0.409891
Pb       0.13846     11.46783     13.14976        -0.587981      0.927196      0.038186
Pb       7.69664      3.71423      4.41074         0.010974     -0.250711     -0.201197
Pb       7.69888      3.91084     17.27768        -0.028453     -0.462621      0.316188
Pb       7.68748      0.04330      4.33435         0.236080      0.031475      0.441670
Pb       7.38478     15.32827     17.31478         1.119266      0.222506      0.381673
Pb       7.65576      3.81675      8.68783        -0.222640      0.149753     -0.107028
Pb       7.68257     15.24805      8.57929        -0.111282      0.660396      0.504597
Pb       7.83301      3.99473     13.27546        -0.442561     -0.731453     -0.631435
Pb       7.69755      0.14768     13.01688        -0.347609      0.037718      0.220921
Pb       7.52967      7.50498      4.26735         0.961439      0.390877     -0.403073
Pb       7.62827      7.64174     17.43229         0.098264     -0.033045     -0.072908
Pb       7.59120      7.87729      8.61306         0.239696     -0.748612      0.719374
Pb       7.61757      7.60485     12.96881        -0.251393      0.588169      0.182006
Pb       7.68257     11.38635      4.36755         0.349530      0.407973     -0.214125
Pb       7.53823     11.65438     17.30517         0.563742     -0.482832      0.362676
Pb       7.71575     11.47917      8.68293        -0.223298      0.076174      0.332409
Pb       7.89088     11.65998     13.06697        -0.753842     -1.068838     -0.318151
Pb      11.59070      3.75324      4.36723        -0.605289     -0.161266     -0.292058
Pb      11.55123      3.81869      0.04094        -0.029892     -0.015196      0.151347
Pb      11.58770     15.35912      4.24513        -0.658738     -0.377399      0.589366
Pb      11.39953     15.28476     17.20546         0.155004      0.431384      1.394146
Pb      11.58020      4.06754      8.67336        -0.531625     -0.279423      0.351861
Pb      11.46933     15.27232      8.63417         0.299611      0.156151     -0.099156
Pb      11.54396      3.69151     13.29684        -0.072435      0.412124     -1.068646
Pb      11.41640     15.33311     13.03759         0.312365      0.004902     -0.161707
Pb      11.59153      7.69249      4.20229        -0.768419     -0.090814      0.111263
Pb      11.41155      7.57739      0.00270         0.142762      0.298663      0.603261
Pb      11.56475      7.69221      8.63335        -0.284119     -0.879829      1.170104
Pb      11.39102      7.71488     13.00270         0.497095     -0.580869      0.231223
Pb      11.57447     11.36986      4.40342        -0.342263      0.789231     -0.649182
Pb      11.36082     11.49579     17.33511         0.154635     -0.551181      0.704251
Pb      11.49719     11.51450      8.85857         0.003450      0.212360     -0.672305
Pb      11.46828     11.44189     12.94680        -0.009125      0.352027      0.240951
Ti       1.90487      1.91618      2.37101         0.583087     -0.823029      2.294694
Ti       1.82511      1.82660     15.42961         0.167531     -0.470622      1.783905
Ti       1.89271     13.36734      2.09526         0.815874      1.425979      3.124996
Ti       1.87359     13.34579     15.46788        -0.091828      0.700423     -1.159988
Ti      13.44057      1.85558      2.29045        -0.004451      0.757163      0.186690
Ti      13.38673      1.87577     15.45223         0.975701     -0.328518     -0.419133
Ti      13.37300     13.42904      2.24690        -0.558768     -0.464363      1.602068
Ti      13.27436     13.30883     15.36788         2.552635      0.822851     -0.105654
Ti       1.89795      1.88340      6.78580        -0.458324      1.087077     -0.384239
Ti       1.81040     13.50410      6.81824         0.719778     -0.772338      0.070511
Ti      13.34893      1.92442      6.60449        -0.745510     -0.741503      1.411330
Ti      13.45724     13.35275      6.72256        -0.778401      0.885473      0.107951
Ti       1.87496      1.88948     10.93182         0.820074      0.480854      1.640603
Ti       1.86446     13.36440     10.98639        -0.264553      0.547316      0.374926
Ti      13.37963      1.89941     10.98998        -0.803616      0.227074     -0.312638
Ti      13.40956     13.44614     11.08623        -0.250854     -0.198043     -0.394867
Ti       1.91655      5.64325      2.32649         0.104200      0.911525      2.328975
Ti       1.87696      5.70441     15.44714         0.398191      0.521369     -0.494303
Ti      13.48840      5.69978      2.36556        -0.502133      0.580492      0.862713
Ti      13.45525      5.69226     15.51332        -0.577357     -0.022584     -0.557348
Ti       1.96327      5.82407      6.71869        -1.222050     -1.073025      1.064520
Ti      13.39285      5.80765      6.44434        -0.012222      0.100575      1.635100
Ti       1.83594      5.70375     11.08852         0.872521     -0.293910      0.219285
Ti      13.39721      5.76300     11.26307        -0.981547     -0.163751     -1.431046
Ti       1.87218      9.52367      2.15244        -0.134585      0.915347      1.385124
Ti       1.83687      9.57418     15.35531         1.428053      0.328586      2.447459
Ti      13.45493      9.62064      2.31114        -0.254387     -0.195501      1.103215
Ti      13.29703      9.52771     15.34904        -0.162903      0.681788     -0.477549
Ti       1.84781      9.57314      6.67030         1.314108      0.162577      0.615861
Ti      13.40991      9.55774      6.65601        -0.045628     -0.087882      1.010247
Ti       1.85461      9.57198     11.04633         0.897807     -0.540974      0.538891
Ti      13.46348      9.62468     11.14922        -1.432336     -1.004890     -0.657870
Ti       5.76025      1.93914      2.36601        -0.022405     -0.555969     -0.251508
Ti       5.71445      1.85919     15.30915         0.576150      0.637918     -2.197521
Ti       5.78189     13.40067      2.40672        -0.620075      0.305380     -0.584578
Ti       5.68929     13.36504     15.24419        -0.686322      0.575484      1.108298
Ti       5.73193      1.89044      6.79138         0.171154      0.061857     -0.691799
Ti       5.78146     13.38661      6.74831        -1.714086      0.370559      0.364049
Ti       5.81872      1.90719     10.97600        -1.086699      0.491014     -0.330347
Ti       5.79777     13.47718     11.08786        -0.110274     -1.247656     -0.540593
Ti       5.68858      5.62859      2.30805         1.137213      0.343458      0.803422
Ti       5.67639      5.76219     15.36905         0.504168      0.012162      0.020706
Ti       5.78588      5.73234      6.62378        -0.332599     -0.078019      0.895394
Ti       5.73526      5.70139     11.02722        -1.542266      0.339423     -0.056060
Ti       5.73484      9.62030      2.32232        -0.145112      0.059562     -0.553425
Ti       5.75775      9.50075     15.30967        -0.355615     -0.148646      1.025616
Ti       5.71216      9.61199      6.64019        -1.382468      0.438650      1.273754
Ti       5.68451      9.55957     11.07705         1.151138      0.267196     -0.334710
Ti       9.61696      1.80740      2.21357        -1.077828      0.511261      0.517180
Ti       9.58340      1.88412     15.43286        -0.995935      0.171037      1.425765
Ti       9.51887     13.43772      2.36781         0.802985     -1.010595      0.422864
Ti       9.57975     13.41704     15.33466        -1.000600     -0.175469     -0.903943
Ti       9.61083      1.96642      6.75238        -0.745135     -0.541326     -1.228740
Ti       9.57467     13.42093      6.65235         0.610533     -0.212906     -0.020017
Ti       9.55440      1.92146     10.92464        -0.045667      0.417836      3.151577
Ti       9.53719     13.53094     10.99913         0.642169     -1.185992     -0.476642
Ti       9.66350      5.58000      2.43639        -0.837798      0.877681     -1.302462
Ti       9.65792      5.77066     15.41626        -1.163391     -0.282136      0.574370
Ti       9.51033      5.75230      6.63595         0.743442      0.524716      2.453368
Ti       9.57122      5.68825     11.08276         1.107211     -0.430294     -0.640005
Ti       9.58364      9.56383      2.25208        -0.279113     -0.466309      1.304180
Ti       9.49992      9.53428     15.37876         1.213879     -0.116659      0.445651
Ti       9.64128      9.58246      6.70899        -0.573775     -0.598151      0.604024
Ti       9.55676      9.52971     11.06475        -1.154361      0.512005     -0.461775
O       1.88837      1.98214      0.70376         0.061698      0.091737     -2.889502
O       1.76309      1.80287     13.73117         0.128412      0.365649     -1.226928
O       2.03672     13.42391      0.44860        -0.308054      0.157508     -2.340264
O       1.83931     13.35987     13.62184         0.090971      0.071446      1.140600
O      13.37504      1.77324      0.50529         0.292600      0.020882      0.793082
O      13.43106      1.99691     13.68311         0.096656     -0.159654      0.036738
O      13.37370     13.49189      0.51742        -0.137056      0.004719     -0.722488
O      13.28232     13.25639     13.63223        -0.095024      0.269349     -0.319196
O       1.92081      1.88977      5.00753        -0.156201     -0.120332      0.122294
O       1.76407     13.46471      5.01221        -0.016030     -0.036382      0.441062
O      13.33106      1.96802      4.83755         0.075758     -0.170059      0.152742
O      13.45795     13.41282      4.97079         0.283141     -0.121704     -0.105380
O       1.84820      1.93646      9.24851        -0.309192     -0.047148     -1.994690
O       1.85063     13.30553      9.23606         0.249790      0.252613      0.221720
O      13.30805      1.86278      9.15371         0.214385      0.407154      2.079686
O      13.30762     13.43344      9.33002        -0.035973     -0.091473      0.245377
O       2.03533      5.63313      0.64106        -0.268504      0.429489     -1.983211
O       1.86216      5.66010     13.69465        -0.016323      0.262085     -0.309924
O      13.37528      5.67826      0.63169         0.185555     -0.068074     -1.118519
O      13.22041      5.69005     13.75649         0.800550     -0.217086      0.563164
O       1.93398      5.79845      5.01466        -0.039860     -0.017748     -1.634202
O      13.28989      5.73289      4.69845         0.478599     -0.000835      0.182399
O       1.79510      5.72854      9.35648        -0.073710      0.054559     -0.741458
O      13.35219      5.70262      9.42169         0.202791     -0.080415      1.023076
O       1.95202      9.66348      0.42793        -0.066962     -0.884784     -0.700684
O       1.86059      9.59903     13.65115        -0.346130     -0.113017     -1.658001
O      13.58459      9.71319      0.62350        -0.599928     -0.408747     -1.716246
O      13.28085      9.60943     13.57272         0.222208     -0.125684      0.666489
O       1.89487      9.62573      4.91738        -0.455367      0.012810     -0.444095
O      13.35195      9.58875      4.91167         0.042284      0.023561     -0.122811
O       1.84493      9.46929      9.32282        -0.228959      0.375268     -0.017835
O      13.50840      9.50960      9.37914        -0.132350      0.219804      0.033109
O       5.80406      1.99272      0.56491        -0.443284     -0.365524      0.255912
O       5.81076      1.86949     13.46411        -0.537330     -0.015439      1.706227
O       5.79030     13.36834      0.56583         0.146147      0.305859      0.760665
O       5.67041     13.29654     13.52672         0.148623      0.668762     -0.688795
O       5.81532      2.00275      4.99050        -0.314207     -0.382458      0.791896
O       5.72607     13.38587      5.03847         0.000631     -0.203138     -1.275685
O       5.79468      1.79689      9.16504        -0.045374      0.426385      0.875832
O       5.63741     13.37012      9.31928         0.449852      0.394577      0.203457
O       5.65534      5.58181      0.55117         0.236720      0.204087     -0.156225
O       5.66971      5.80742     13.60519        -0.111237     -0.161407      0.410996
O       5.70537      5.64456      4.89110         0.094876      0.445706     -0.840971
O       5.69840      5.80054      9.28751         0.175837     -0.107456     -0.992332
O       5.79275      9.68437      0.51597        -0.211836     -0.326795      0.614802
O       5.63260      9.41873     13.61498         0.370647      0.146730     -1.151268
O       5.54573      9.65153      4.91288         0.523572      0.117503     -0.759492
O       5.70289      9.57727      9.30444         0.051173     -0.098314     -0.457500
O       9.54957      1.96987      0.46115         0.103245     -0.290361     -0.461503
O       9.43764      1.76887     13.73834         0.333615      0.030075     -1.378967
O       9.50995     13.35945      0.61643        -0.065318     -0.088147     -0.863946
O       9.57559     13.54917     13.53723         0.192054     -0.536160      1.157303
O       9.53744      1.85609      4.94770         0.093346      0.274540      0.711503
O       9.50142     13.44599      4.90133         0.151113     -0.250562      0.309365
O       9.43660      1.88779      9.24920         0.335298      0.295329     -1.879070
O       9.59440     13.46509      9.22343        -0.194964     -0.335283     -0.220393
O       9.66389      5.67699      0.60476        -0.207862     -0.431771      1.061119
O       9.65441      5.67862     13.68339        -0.273483      0.522499     -0.717096
O       9.43876      5.74431      4.94856         0.263283     -0.023197     -1.884194
O       9.81204      5.73976      9.30208        -0.971826     -0.401839      1.176107
O       9.58694      9.49102      0.51930        -0.203136      0.396010     -0.285080
O       9.50035      9.62001     13.64122         0.264076     -0.489948     -0.811828
O       9.58053      9.54587      4.99016         0.052251      0.165883     -1.060038
O       9.50434      9.52321      9.28306        -0.029613      0.237374      0.407903
O       3.89282      1.87381      2.83069        -0.600444      0.287526     -0.078857
O       3.90519      1.92718     15.78143        -1.909919     -0.088795      0.159689
O       3.74727     13.33639      2.76244         0.854453      0.608921     -0.103790
O       3.76668     13.47179     15.77303         1.392458     -0.511594     -0.254716
O       0.02485      2.04446      2.82131        -1.025928     -0.671373     -0.368380
O      15.24919      1.87570     15.89762         1.719555      0.106888      0.110572
O      15.29226     13.50750      2.66015         0.818103     -0.301358     -0.328364
O      15.29661     13.34995     15.81207        -0.150968      0.256217      0.041175
O       3.69451      1.83119      7.19401         1.613490      0.477630     -0.241728
O       3.72041     13.51279      7.13195         0.220866     -0.218025      0.236735
O      15.16450      1.90782      7.10628         0.805453      0.382451     -0.422250
O      15.28529     13.44436      7.30388         0.325841     -0.171298     -0.614049
O       3.73449      1.89752     11.39404         1.170109     -0.453675      0.125526
O       3.80365     13.34788     11.45736         0.052241      0.349201     -0.307364
O      15.31303      1.88706     11.45300        -0.302905      0.143174     -0.401619
O      15.29398     13.44798     11.47081         0.156072     -0.037604     -0.261051
O       3.84010      5.76486      2.78254        -0.668691     -0.347540     -0.204076
O       3.80113      5.85190     15.83583         0.279533     -0.528359      0.026313
O      15.35755      5.69712      2.82709         0.196513      0.116670     -0.382750
O      15.34014      5.80702     15.91476        -0.411061     -0.290599     -0.097000
O       3.83976      5.73482      7.12717        -0.049921      0.575197     -0.472247
O      15.24773      5.67690      6.97557        -0.116776      0.215438      0.015356
O       3.77506      5.75454     11.36592        -0.077805     -0.064326      0.713374
O      15.28156      5.77874     11.54378         0.496640     -0.189626      0.355539
O       3.66071      9.51731      2.70686         1.748101      0.753502     -0.236417
O       3.79495      9.53562     15.66749         0.590012      0.098281      0.582997
O      15.33225      9.62511      2.64619         0.486905     -0.382085      0.380371
O      15.31936      9.57003     15.82774        -0.510608      0.186751     -0.562657
O       3.70374      9.53267      7.06341         1.471313     -0.058825      0.260690
O      15.32469      9.55437      7.14063        -0.498529     -0.130750     -0.370590
O       3.82277      9.55985     11.47599        -1.150015      0.419689     -0.080772
O      15.23365      9.47203     11.60311         2.219513      0.410297     -0.229514
O       7.64115      1.93669      2.64001         0.204857     -0.331362      0.513846
O       7.58011      1.81678     15.73458         0.631872      0.028364      0.397751
O       7.68669     13.46032      2.87275        -1.044275     -0.593763     -0.344615
O       7.65150     13.47056     15.65041        -0.565813     -0.503639      0.219572
O       7.65575      1.96748      7.17045        -0.246827     -0.082933     -0.195752
O       7.63007     13.36009      7.11921         0.734334     -0.095977     -0.034487
O       7.60801      2.02023     11.47566         1.142403     -0.586826     -0.391745
O       7.74242     13.39451     11.50806        -1.753053      0.184009     -0.323346
O       7.64195      5.71781      2.72914        -0.457208     -0.143203     -0.051471
O       7.67107      5.79149     15.74711        -0.623773     -0.350622      0.187060
O       7.61321      5.61222      7.04567         0.839684      0.636807      0.074328
O       7.51129      5.75240     11.50778         2.726487     -0.676861      0.116524
O       7.54875      9.53850      2.72743         0.811395      0.013169      0.098099
O       7.73559      9.53038     15.75865        -2.285483      0.001462      0.350930
O       7.58420      9.71674      7.11167         0.236587     -0.497198     -0.417781
O       7.60111      9.54983     11.54423         0.882851     -0.020245     -0.222083
O      11.45134      1.84362      2.58953         1.350741     -0.221867      0.291475
O      11.52510      1.89286     15.76787        -1.411116     -0.038964      0.052355
O      11.47352     13.45426      2.76748         0.611786      0.093218     -0.227610
O      11.46337     13.34621     15.89600        -0.785783      0.186257     -0.624255
O      11.38457      1.89903      7.15015         1.842546     -0.318813     -0.315034
O      11.45442     13.30531      7.02743         0.659536      0.357363      0.382672
O      11.38999      1.79436     11.59581         0.727204      0.504407     -0.940018
O      11.37030     13.43203     11.37715         1.587074      0.137268      0.520033
O      11.49200      5.66677      2.77397        -0.183332      0.031893     -0.031474
O      11.45209      5.75941     16.00545         1.388137     -0.531211     -0.598187
O      11.53709      5.85178      7.06253        -0.388343      0.015256     -0.503648
O      11.45035      5.67313     11.64330        -0.142686      0.099989     -0.370367
O      11.47129      9.57946      2.68939         0.101663      0.234324      0.008326
O      11.44664      9.58936     15.79525         0.815981     -0.475244      0.122198
O      11.49769      9.41159      7.19071         0.757840      1.327296     -0.919004
O      11.41812      9.58691     11.45843         0.328030     -0.344811     -0.129709
O       1.85364      3.84028      2.78529         0.692618      0.137826      0.398656
O       1.86970      3.89743     15.88726         0.018686     -1.599225     -0.052493
O       1.99630      0.00707      2.70059        -0.761521     -0.519977      0.096679
O       1.88290     15.33106     15.84709         0.040541      0.627032      0.107992
O      13.31147      3.78353      2.75042         0.514721     -0.477995     -0.285320
O      13.48172      3.74829     15.94891        -0.454106      1.636422     -0.223657
O      13.53089      0.02268      2.85889        -0.548167     -0.179540     -0.884950
O      13.39843     15.29860     15.67947        -0.333486     -0.532048      0.562727
O       1.81568      3.85952      7.10721         0.248632     -0.347432      0.004635
O       1.82722      0.02685      7.33574        -0.368148     -0.442322     -0.800001
O      13.21791      3.87434      7.01520         0.740197     -0.131015     -0.612331
O      13.37158     15.32793      7.14114        -0.269547      0.109303     -0.604233
O       1.95956      3.75924     11.41307        -0.904971      0.812013      0.478449
O       1.95900     15.32171     11.39445        -0.631119     -0.459796     -0.142437
O      13.33472      3.73967     11.59010         0.317560      0.074098     -0.369561
O      13.38513      0.03662     11.53254        -0.185236     -0.509512     -0.339712
O       1.88789      7.69282      2.83899         0.070153     -0.917568     -1.295333
O       1.88322      7.66761     15.84777        -0.174698      0.064749      0.120653
O      13.33423      7.61835      2.66019         0.543530      0.718230     -0.085275
O      13.43667      7.68452     15.80097        -0.148885     -0.399162      0.210234
O       1.83338      7.64302      7.12407        -0.135329      0.153633     -0.005408
O      13.44864      7.64931      7.15804         0.267077      0.112543     -0.945673
O       1.98159      7.69164     11.47845        -1.093045     -0.120086      0.354548
O      13.29542      7.64525     11.56752         0.255319     -0.107905      0.146766
O       1.90559     11.51080      2.52233        -0.518949     -0.443490      0.480611
O       1.93562     11.47268     15.88978        -0.365854     -0.262321     -0.686245
O      13.38426     11.55477      2.73483         0.106314     -0.071030     -0.066619
O      13.42988     11.47425     15.83966        -0.603389     -0.679272     -0.129610
O       1.94354     11.45295      7.16264        -0.843656      0.705325     -0.326648
O      13.45725     11.46515      7.18139        -0.494561     -0.600493     -0.278408
O       1.79381     11.54347     11.52571         0.215186     -1.417645     -0.604515
O      13.38796     11.49044     11.42719        -0.185423      0.521054      0.023484
O       5.66778      3.80129      2.86959         0.209838      0.287301     -0.615903
O       5.74236      3.76871     15.69021         0.024892      1.234536      0.160267
O       5.81607     15.29454      2.89355        -0.758973      0.332320     -0.794474
O       5.59226     15.31067     15.80304         0.912261     -0.357874     -0.470590
O       5.74033      3.87952      7.05522        -0.600950     -1.002790      0.474030
O       5.68805      0.00068      7.10671         0.350388     -0.295276      0.046082
O       5.69437      3.80593     11.29891        -0.363291     -0.300556      0.281932
O       5.76840     15.34374     11.39137        -0.177991     -0.154457      0.099868
O       5.61862      7.68772      2.73553         0.799199     -0.408111     -0.612135
O       5.71767      7.67427     15.85265         0.230300     -0.437497      0.112480
O       5.71402      7.66503      7.02902         0.321122      0.347869     -0.134692
O       5.75478      7.66842     11.36256        -0.487505     -0.238711      0.614744
O       5.74231     11.53489      2.66002        -0.127024     -0.784043      0.565320
O       5.76714     11.48080     15.66138        -0.000609      0.061853      0.090444
O       5.66097     11.53240      7.19702        -0.170637     -0.659236     -0.288354
O       5.76570     11.50842     11.46632         0.092019      0.099493      0.058468
O       9.57391      3.65913      2.83046         0.168099      1.358160     -0.327880
O       9.54043      3.80842     15.61796        -0.010022     -0.158264      0.640298
O       9.55577     15.29871      2.71780        -0.082517      0.890945     -0.084705
O       9.51057     15.26188     15.77018         0.698763      0.314002      0.184373
O       9.69075      3.86532      7.09406        -0.662767      0.432596     -0.001720
O       9.57150     15.32484      7.06884        -0.351990     -0.325340      0.082022
O       9.58565      3.76970     11.69651        -0.364591      0.355488     -1.030116
O       9.47216      0.00297     11.36736        -0.010645      0.955789      0.081637
O       9.56067      7.61772      2.74764        -0.031161      0.263193     -0.054342
O       9.52717      7.58637     16.01748         0.474432      0.754717     -0.838486
O       9.47162      7.67983      7.19128        -0.095879     -0.551818     -0.567651
O       9.50191      7.54487     11.48675         0.180083      0.961608     -0.034756
O       9.51815     11.46963      2.79306         0.028286     -0.488242     -0.203745
O       9.63148     11.42277     15.71120        -0.524762      1.575886      0.207328
O       9.66465     11.42400      7.08580        -0.464134      0.859980      0.323380
O       9.56006     11.46537     11.42353        -0.112506      0.099878     -0.143959
