  # total energy = -7881.54438387 
CRSYTAL
PRIMVEC
    15.3600000000000000    0.0000000000000000    0.0000000000000000
     0.0000000000000000   15.3600000000000000    0.0000000000000000
     0.0000000000000000    0.0000000000000000    17.440000000000000
PRESSURE
1.26835 1.41179 0.244739 -0.102602 -0.344838 0.057794
PRIMCOORD
320 1
Pb       3.90443      3.82379      4.39347         0.062424     -0.409285      0.143464
Pb       3.92284      3.81410      0.00629        -0.576687      0.292712     -0.432218
Pb       3.77845      0.02022      4.32650         0.209976      0.549144     -0.295285
Pb       3.71413     15.31106     17.35218         0.390617      0.384950      0.255988
Pb       0.06688      3.75045      4.36352         0.194934     -0.120019      0.005113
Pb       0.08120      3.94515     17.43627         0.027127     -0.214480     -0.389290
Pb       0.10323      0.03163      4.34074        -0.008010     -0.124369      0.033131
Pb      15.23575      0.00204     17.37908         0.099658      0.245634     -0.143045
Pb       3.75115      3.75083      8.73224         0.043634      0.285944     -0.373070
Pb       3.83861     15.35605      8.58801         0.025104     -0.106215      0.496913
Pb      15.12371      3.97208      8.63253         0.805935     -0.658728     -0.106594
Pb      15.19452     15.32388      8.72187         0.147276      0.237635     -0.529603
Pb       3.80440      3.65402     13.10076         0.293174      0.177648     -0.226747
Pb       3.73231      0.00618     12.93099         0.508766     -0.017616      0.392582
Pb       0.03668      3.78822     13.04966         0.210670      0.066117     -0.307013
Pb      15.31692     15.26313     13.07550         0.169210      0.201096     -0.147957
Pb       3.85241      7.66418      4.32885         0.409867      0.024197     -0.054807
Pb       3.81786      7.58007     17.41402        -0.152256      0.422786     -0.105789
Pb       0.14828      7.83882      4.33889        -0.830719     -0.723270     -0.145125
Pb      15.22584      7.69322      0.01235         0.395302     -0.054400     -0.289514
Pb       3.81254      7.73676      8.61995         0.109325     -0.685594      0.245060
Pb       0.00737      7.60700      8.62946        -0.058505      0.106263     -0.088420
Pb       3.85061      7.55359     13.00149        -0.321536      0.062594      0.368933
Pb      15.33647      7.63434     13.12093         0.364550      0.167393     -0.715253
Pb       3.81350     11.59157      4.23847         0.045438     -0.464502      0.456871
Pb       3.97672     11.62930     17.40194        -0.210389     -0.848507      0.323425
Pb       0.08381     11.54665      4.36040        -0.264840      0.629235     -0.222610
Pb      15.27363     11.55568     17.31224         0.002331     -0.303005      0.450687
Pb       3.87914     11.52390      8.62227         0.137872     -0.458167     -0.090863
Pb      15.29862     11.44802      8.71350         0.452247      0.038705     -0.130315
Pb       3.92374     11.42914     13.12520        -0.286587      0.151704     -0.280323
Pb       0.19300     11.57281     13.04028        -0.531468     -0.988116     -0.069173
Pb       7.71887      3.76579      4.30875        -0.813364      0.005752      0.197722
Pb       7.68649      3.86428      0.01576         0.000863      0.154267     -0.623375
Pb       7.69693      0.00323      4.41153        -0.205137     -0.041155     -0.616242
Pb       7.53905      0.07397     17.30501         0.108118     -0.471127      0.244945
Pb       7.57014      3.86400      8.77148        -0.161613      0.042924     -0.697752
Pb       7.66060     15.27771      8.76882        -0.161227     -0.038258     -0.672687
Pb       7.88645      3.92237     13.03762        -0.926395     -0.284390      0.351537
Pb       7.69250      0.12720     13.01541        -0.766275     -0.385475     -0.258825
Pb       7.74459      7.52650      4.33289        -0.564248      0.222506     -0.309005
Pb       7.59178      7.78945     17.42072        -0.132506     -0.704976     -0.090884
Pb       7.72683      7.65590      8.68267        -0.781464     -0.089483     -0.236679
Pb       7.64196      7.73344     13.05006        -0.432016     -0.503246      0.215963
Pb       7.64296     11.50895      4.33089        -0.146098     -0.242743     -0.063810
Pb       7.72996     11.54637     17.36890        -0.759507      0.407642      0.087406
Pb       7.56164     11.60667      8.57099        -0.370165     -0.834179      0.731233
Pb       7.79349     11.50346     12.98710        -0.944652      0.646490     -0.476118
Pb      11.44131      3.77622      4.30830        -0.110023      0.339004     -0.220282
Pb      11.73394      3.90742      0.10583        -0.244483     -0.424120     -0.327637
Pb      11.57716     15.26178      4.35597        -0.614975     -0.207846     -0.237979
Pb      11.27472     15.25920      0.03654         0.331938      0.300801     -0.484457
Pb      11.41160      3.87463      8.68588        -0.120764     -0.101118     -0.634939
Pb      11.51074      0.02445      8.76174        -0.218418     -0.160018     -0.702735
Pb      11.60146      3.71886     13.04901        -0.354640     -0.048825      0.060249
Pb      11.54054     15.31736     13.05242        -0.010207      0.336631     -0.100671
Pb      11.54252      7.57608      4.36931        -0.265726      0.181414     -1.055973
Pb      11.51263      7.69010     17.39802        -0.082929     -0.241880      0.360436
Pb      11.55310      7.71917      8.70649        -0.118242     -0.146583     -0.751909
Pb      11.35054      7.62069     13.12995         0.355138     -0.085519     -0.051043
Pb      11.58222     11.43552      4.26414        -0.716295      0.104847      0.034262
Pb      11.39973     11.41199     17.35966         0.153794      0.263348     -0.271791
Pb      11.60040     11.44195      8.59328        -0.623245      0.147302     -0.206046
Pb      11.55237     11.47238     13.03871         0.347489     -0.104574     -0.324984
Ti       1.92444      1.99181      2.25475         0.428779     -0.870941      0.912960
Ti       1.86907      1.87203     15.38884         0.603594      0.841113      0.216699
Ti       1.82956     13.41287      2.30238         0.157907      0.744362     -0.607653
Ti       1.84527     13.34150     15.46334         0.371805      0.767280     -1.463771
Ti      13.36755      1.86600      2.41596         0.757254      0.308341     -0.653344
Ti      13.45105      1.97252     15.32038        -0.840664     -0.625533      1.111457
Ti      13.37738     13.38596      2.23876         0.375152      0.714088      0.495814
Ti      13.28094     13.50558     15.44170        -0.041717      0.041530     -0.383698
Ti       1.82015      1.84064      6.85276         0.726307      0.883251     -1.779320
Ti       1.88665     13.38868      6.74363        -0.160295      0.186004     -0.147951
Ti      13.33838      1.88367      6.63358         0.602288     -0.042428      1.480942
Ti      13.45244     13.37721      6.66151        -0.676865      1.231084      0.400632
Ti       1.86973      1.78592     10.95220         0.960116      1.190046      0.288498
Ti       1.82412     13.28859     10.91928         1.297032      0.562235     -0.942018
Ti      13.48993      1.85701     11.05576        -0.698636      0.281531     -0.798974
Ti      13.41596     13.45076     10.98276        -0.337006     -0.686502     -0.888132
Ti       1.93557      5.76947      2.38597         0.663554     -0.557643     -1.785660
Ti       1.88418      5.69610     15.34076         0.591310      0.274295      0.681595
Ti      13.54350      5.70519      2.38312        -1.043128      1.347440     -0.185197
Ti      13.43650      5.74796     15.33477         0.331890     -0.068603     -0.254190
Ti       1.85126      5.69587      6.64203         1.461545     -0.084160      1.995114
Ti      13.32797      5.73296      6.55219         0.295104      0.301973      0.907650
Ti       1.93153      5.63688     11.03818        -0.527963      0.519291      0.032544
Ti      13.33374      5.63821     11.12369         1.112385      1.047119      1.597977
Ti       1.78170      9.62005      2.29216         1.560330      0.367428     -1.490529
Ti       1.82464      9.53672     15.51922         0.886641     -0.352861     -0.910106
Ti      13.36432      9.62412      2.30310        -0.616712     -1.507502     -0.350858
Ti      13.35798      9.58362     15.33504         0.151622     -0.031883     -0.086444
Ti       1.82284      9.56853      6.69539         1.370870     -0.528421      0.198291
Ti      13.37903      9.61500      6.59716         0.113542     -1.353520     -0.402252
Ti       1.94853      9.49036     11.02914        -1.465225     -0.501355      0.306376
Ti      13.35958      9.44570     11.11716         1.454092      0.351163     -0.231279
Ti       5.70830      1.89368      2.24541         0.232555     -0.377568      1.832548
Ti       5.67574      1.97985     15.42634        -0.489704     -0.296237     -0.739023
Ti       5.75743     13.39692      2.34647         0.386685      0.806408      0.020540
Ti       5.70107     13.49426     15.33637         1.186296     -0.228800     -0.541274
Ti       5.75530      1.82514      6.71591        -0.267993      0.732877     -0.398870
Ti       5.66811     13.43724      6.58649         0.530865     -1.076268     -0.162604
Ti       5.70684      1.86907     10.90512        -0.328343      1.041023     -0.760401
Ti       5.62503     13.40609     11.04427         1.106984      0.044732     -0.639308
Ti       5.66957      5.69573      2.33155         0.760964      0.866246      0.093825
Ti       5.73508      5.80956     15.44434        -0.077982     -0.626649      0.478217
Ti       5.70357      5.60774      6.69411         0.246610      1.466225      0.130552
Ti       5.70281      5.66791     11.03542         0.066625     -0.283351     -0.699052
Ti       5.61519      9.61061      2.32550         0.563867     -0.955949     -0.193006
Ti       5.72715      9.62951     15.38779        -1.395387     -0.006432      1.705830
Ti       5.67941      9.46361      6.60918         0.132010      0.934938      0.713354
Ti       5.71866      9.58096     11.07499         0.239818      0.072685     -1.543048
Ti       9.52084      1.85629      2.31609         0.028371     -0.844538      0.184093
Ti       9.63929      1.91608     15.49515         0.246563     -0.039057      1.275602
Ti       9.54547     13.38299      2.33770        -0.137432      0.412628      1.904602
Ti       9.50404     13.41605     15.21245         0.335245      0.594929      1.259988
Ti       9.56005      1.85657      6.67523        -0.797212      0.142057      0.559789
Ti       9.52676     13.34808      6.69776         0.946607      1.099701     -1.044369
Ti       9.54699      1.90517     10.93034         0.619451     -0.228708      0.283222
Ti       9.59576     13.45533     10.99518        -1.506784      0.205686      0.250741
Ti       9.54240      5.67884      2.24504         0.834752      1.019086      0.497534
Ti       9.65718      5.71342     15.52023        -1.212361      0.152127      0.432492
Ti       9.53137      5.72785      6.60246        -0.346046     -0.013218      0.078926
Ti       9.57282      5.71074     11.01967        -0.831603     -0.148104     -1.167435
Ti       9.45395      9.55151      2.29406         0.414828     -0.237118      1.795903
Ti       9.51105      9.57995     15.36299        -0.169703     -1.025221      0.368857
Ti       9.47081      9.53308      6.68523        -0.083845      0.189618      1.810061
Ti       9.57487      9.58448     11.04225        -0.401436     -0.211782     -0.599763
O       1.87837      1.95316      0.50488        -0.202534      0.100867     -0.630447
O       1.98905      1.95729     13.64089        -0.511197     -0.615019     -0.876879
O       1.73865     13.44167      0.52683         0.142446      0.225049     -0.423957
O       1.79395     13.27279     13.59241         0.019674      0.398477      1.327202
O      13.42275      2.01658      0.66261         0.362951     -0.522563      0.146489
O      13.46189      1.96888     13.56698        -0.079334     -0.233239     -1.103925
O      13.33061     13.44329      0.46663         0.190584      0.174482     -0.331506
O      13.31062     13.66090     13.68391         0.267128     -0.905046     -1.264644
O       1.84486      1.81254      5.01045         0.182928      0.121222      0.751865
O       1.78944     13.35459      4.95031         0.262203     -0.097967     -0.278845
O      13.37107      1.95272      4.91291        -0.096340     -0.199483     -1.394079
O      13.51244     13.37087      4.93214        -0.443993     -0.044003     -0.889264
O       1.87516      1.83135      9.20878        -0.068950      0.077514     -1.074478
O       1.92721     13.28667      9.11941        -0.571701      0.123087      0.582053
O      13.50981      1.89581      9.27084        -0.144516     -0.111536     -0.037315
O      13.50967     13.41697      9.17155        -0.378540     -0.061294      0.419476
O       1.88500      5.57777      0.54906        -0.058204      0.465075      1.039740
O       2.03227      5.82055     13.60541        -0.633262     -0.205411     -0.731181
O      13.47611      5.79386      0.58121         0.379100     -0.386387      0.053915
O      13.34854      5.70426     13.56214         0.016241     -0.088885      0.143895
O       2.02068      5.71168      4.94325        -0.363110      0.167637     -1.815467
O      13.41068      5.60621      4.85533        -0.442651      0.488878     -1.494169
O       1.93104      5.64856      9.28392        -0.427201      0.117572     -0.042957
O      13.38066      5.80557      9.41901        -0.350359     -0.099357     -2.185004
O       1.82113      9.61654      0.52891        -0.185243      0.049476     -0.080549
O       1.69869      9.57076     13.71362         0.275491      0.327464      0.132181
O      13.26741      9.48970      0.51346         0.184029      0.404370      0.322718
O      13.25466      9.51242     13.56889         0.310888      0.359817      0.114137
O       1.83741      9.55202      4.93385        -0.080357      0.079145     -1.146553
O      13.24393      9.61252      4.84661         0.668437      0.143640     -0.819718
O       1.96821      9.52137      9.29859        -0.420153     -0.032074     -1.149176
O      13.28976      9.37310      9.29737         0.177935      0.578187     -0.003929
O       5.63887      1.83776      0.51240         0.104037      0.383221     -1.313482
O       5.59589      1.86063     13.67139         0.328353      0.137195     -0.276093
O       5.86752     13.30051      0.58324        -0.239036      0.230622      0.040124
O       5.68442     13.55904     13.57539        -0.011557     -0.417703     -0.488220
O       5.75062      1.83581      4.94844        -0.122262     -0.113592     -0.469940
O       5.68977     13.32077      4.80668         0.100661      0.552919      0.057765
O       5.66185      1.90859      9.07460         0.448297     -0.097802      1.067482
O       5.75129     13.38108      9.22404        -0.467718      0.050456      1.143753
O       5.62074      5.82484      0.57086         0.107725     -0.516176     -0.822952
O       5.63446      5.72645     13.71803         0.467467      0.321043     -1.181048
O       5.67442      5.70034      4.93780        -0.019266      0.277734     -0.733767
O       5.82190      5.63307      9.25395         0.018458      0.002153      0.246963
O       5.68542      9.64247      0.52389         0.191544     -0.010606      0.792776
O       5.63167      9.54835     13.67043         0.414484      0.302025     -1.539306
O       5.67826      9.43819      4.85999        -0.167283     -0.004283     -0.493231
O       5.75847      9.73129      9.29658        -0.434325     -0.350439      1.175540
O       9.45624      1.76679      0.56997         0.321801      0.238849     -0.930406
O       9.70451      1.94678     13.78481        -0.233082     -0.076205     -1.396457
O       9.59639     13.38056      0.63989        -0.049937     -0.021322     -2.334790
O       9.54726     13.55010     13.46379        -0.037163     -0.202884     -0.755810
O       9.61427      1.80879      4.91981         0.108206      0.080095     -0.496257
O       9.62993     13.47639      4.88416        -0.273753     -0.399997      1.078550
O       9.65473      1.88398      9.18658        -0.400696      0.395008     -0.277103
O       9.31999     13.53747      9.25972         1.027193     -0.417910     -0.002583
O       9.68506      5.72951      0.48072        -0.648344     -0.278517      0.169246
O       9.53113      5.73859     13.76763         0.131128     -0.453975     -1.112295
O       9.62436      5.71057      4.81711        -0.102577      0.242007     -0.386082
O       9.45104      5.57034      9.16643         0.607899      0.407735      2.105364
O       9.56652      9.54862      0.57175        -0.176433      0.169771     -1.634877
O       9.56811      9.43671     13.62416        -0.293956      0.513031     -0.820967
O       9.49081      9.51172      5.01046         0.145507      0.059916     -2.401651
O       9.57445      9.50704      9.27827         0.417171      0.060599      0.304779
O       3.87851      1.91305      2.77516        -0.676323     -0.182625     -0.186074
O       3.74800      2.04525     15.74475         0.455579     -0.867563      0.776340
O       3.79751     13.24982      2.62439         0.102788      0.716029     -0.054661
O       3.92064     13.48586     15.82289        -2.883692     -1.003063      0.133728
O       0.08709      1.91775      2.80307        -0.725387      0.074709     -0.229163
O      15.27498      1.83687     15.72770         0.754347     -0.430814      0.376427
O      15.27981     13.38516      2.76212         0.618521      0.388806     -0.243900
O      15.26637     13.41647     15.75829         0.620000      0.369789      0.095234
O       3.84126      1.91967      7.10832        -0.826824     -0.051887      0.158859
O       3.80803     13.44176      7.01422        -0.577663     -0.371752      0.050809
O      15.29146      1.92741      7.04522        -0.630754     -0.435006      0.332640
O      15.33033     13.51397      7.02686         0.128276     -0.471606      0.581386
O       3.82841      1.85420     11.34989        -0.543473      0.063833      0.231275
O       3.69718     13.38500     11.37614         0.821165     -0.176698      0.184285
O       0.04978      1.85265     11.37577        -0.814639      0.328121      0.693034
O      15.30391     13.33367     11.21761         0.382334      0.559061      0.882096
O       3.86704      5.63300      2.74651        -1.903121      0.411556      0.365803
O       3.76709      5.77870     15.77898        -0.089757      0.292858      0.533819
O       0.08527      5.81740      2.76162        -0.687320     -0.519495      0.154401
O      15.32621      5.79261     15.66708         0.278700     -0.295035      0.420884
O       3.84886      5.73007      7.07325        -0.634653     -0.121720      0.304455
O      15.34092      5.74048      6.90794        -1.005000      0.000348      0.713218
O       3.81455      5.83350     11.42796         0.179746     -0.316029     -0.174524
O      15.22590      5.58207     11.39477         1.063798      0.467737      0.474477
O       3.74713      9.71487      2.68644         0.015861     -0.202580      0.175578
O       3.82856      9.57710     15.82007        -0.639821      0.355206     -0.038714
O      15.30114      9.50970      2.60760        -0.590377      0.284954      0.660680
O      15.27562      9.70089     15.82484        -0.460328     -0.214148      0.021507
O       3.78448      9.55615      7.09907         0.091944     -0.000070     -0.125268
O      15.32333      9.51859      6.96999        -0.607869      0.016322      0.685895
O       3.74166      9.63484     11.52074         1.451288     -0.420797      0.043647
O      15.29697      9.46007     11.36031        -0.453111      0.601179      0.327408
O       7.65115      1.88991      2.68285        -0.249015     -0.116220      0.300675
O       7.55892      1.89662     15.75835         0.989325      0.078878      0.244897
O       7.69012     13.34958      2.79234        -0.729825      0.564908      0.050391
O       7.69520     13.49406     15.74669        -0.595998     -0.340310     -0.102831
O       7.62544      1.81885      6.97617         0.927943      0.102768      0.528459
O       7.59827     13.38127      7.10901         0.219484      0.622693     -0.704130
O       7.59180      2.14042     11.32311         0.860891     -0.789717      0.141135
O       7.53800     13.35647     11.37105         0.858377      0.245289      0.609918
O       7.56025      5.69878      2.65625         1.417285      0.096402      0.130708
O       7.64638      5.65846     15.90638        -0.264450      0.212132      0.023968
O       7.67327      5.86775      6.94995        -0.681592     -0.356027      0.485633
O       7.61269      5.64345     11.43846         1.045304     -0.552142      0.310282
O       7.57899      9.40747      2.78227         0.147702      0.630235     -0.411095
O       7.60370      9.59487     15.79324         0.634309     -0.082759      0.057077
O       7.53915      9.66844      7.07207         1.128155     -0.532076     -0.099790
O       7.68710      9.71212     11.43028        -0.379050     -0.503666      0.451940
O      11.49940      1.89922      2.68368         0.098698      0.079661      0.286405
O      11.61898      1.96304     15.97627        -1.495471      0.274813     -0.406547
O      11.49936     13.40407      2.63455         0.830156     -0.090437      0.522618
O      11.38934     13.48835     15.70740        -0.103937     -0.822792      0.458870
O      11.45544      1.86197      7.18762         0.152530      0.645681     -0.318231
O      11.47986     13.36892      7.05112         0.016197     -0.198118      0.407862
O      11.56626      1.73123     11.30373        -0.904262      0.338250      0.404867
O      11.45455     13.69368     11.25782        -0.028649     -0.516817      0.098905
O      11.44834      5.77481      2.57097         0.418040     -0.676978      0.682328
O      11.58354      5.78254     15.85174        -0.355975     -0.345390     -0.120677
O      11.41143      5.77527      7.05683         1.330779     -0.162709      0.173178
O      11.43825      5.64761     11.56076        -0.891979      0.578854     -0.594880
O      11.40781      9.58848      2.68578         0.789545      0.236315      0.277252
O      11.36306      9.47187     15.69058         1.126963      0.313379      0.570577
O      11.52749      9.58351      6.94581        -0.663759      0.166392      1.012108
O      11.45652      9.52697     11.47133        -0.718473      0.044573      0.169846
O       2.00912      3.82476      2.76213        -0.691363      0.134369      0.069251
O       1.92727      3.78968     15.61592        -1.040511      1.003486      0.716181
O       2.06362      0.01792      2.63208        -0.818591     -0.608675      0.333719
O       1.97107      0.02100     15.79071        -0.660178     -1.456946      0.063019
O      13.45558      3.87871      2.70769         0.044890     -0.922540      0.318213
O      13.59298      3.84389     15.73843        -0.823680      0.398735      0.283995
O      13.54935     15.33657      2.83322        -0.808840     -0.051272     -0.677822
O      13.18521      0.00862     15.59198         1.233054      0.418484      1.158231
O       1.87333      3.79413      7.13972        -0.124590      0.292127     -0.038056
O       1.95890     15.29790      7.08228        -0.436880     -0.012863      0.198196
O      13.39336      3.83506      6.90594        -0.332847     -0.041584      1.082455
O      13.28968     15.34649      7.05354         0.544251     -0.002333      0.101207
O       1.97774      3.76857     11.45111        -0.336435      0.102970      0.052058
O       1.97020     15.34967     11.38588        -1.078668     -1.591837     -0.023236
O      13.36910      3.74298     11.42678        -0.126031     -0.005415      0.171473
O      13.52368     15.33943     11.44884         0.249643     -0.521051      0.221108
O       1.92499      7.69803      2.59753         0.281589     -0.288256      0.686376
O       1.75028      7.69674     15.81118         0.387225     -0.429521      0.210603
O      13.41432      7.65647      2.73944        -0.064822      0.196243      0.302618
O      13.49799      7.66757     15.77242        -0.413426      0.340802     -0.039221
O       1.92693      7.63347      7.13604        -0.401719     -0.158502     -0.151970
O      13.42476      7.64903      6.88126        -0.253729     -0.145572      0.603443
O       1.84607      7.60489     11.42441        -0.083513     -0.229285      0.283768
O      13.30303      7.66880     11.58373         0.014627     -1.133631     -0.288231
O       1.80739     11.55119      2.58176        -0.309571     -0.691924      0.907943
O       1.92643     11.53575     15.80230        -0.210370      0.392828      0.215144
O      13.47609     11.51097      2.55033        -0.441385     -0.365004      0.487706
O      13.32143     11.47128     15.66554        -0.486659      0.213960      0.383355
O       1.88500     11.39187      7.07921        -0.448622      1.558887      0.217744
O      13.50156     11.50027      6.89419        -0.143303     -0.553007      1.172216
O       1.82962     11.43840     11.26091        -0.321408      0.388681      0.792510
O      13.27653     11.60959     11.40318        -0.209782     -0.622573      0.173767
O       5.69532      3.79459      2.78736         0.482209     -0.417846     -0.472763
O       5.60790      3.87817     15.75980         0.571312     -0.397226      0.604407
O       5.80509     15.34810      2.69593        -0.443586     -0.671469      0.016372
O       5.55763     15.29554     15.78869         1.033312      1.711738      0.471083
O       5.80779      3.80549      6.95165         0.080658     -0.498451      0.712103
O       5.64718     15.29521      7.01906         0.397449     -0.176012      0.139591
O       5.57292      3.76324     11.27535         0.121013      0.893009      0.506113
O       5.68417      0.05196     11.35654         0.466202     -1.396933      0.162327
O       5.53607      7.61486      2.69912         0.347177      0.731272      0.001419
O       5.67337      7.69800     15.86458         0.603491      0.086317     -0.063587
O       5.72584      7.68616      7.24677         0.099586     -0.335120     -0.606103
O       5.84097      7.64500     11.37015        -0.328718      0.582968      0.355605
O       5.80415     11.48660      2.75760        -0.073311     -0.388039      0.078833
O       5.76681     11.57073     15.84455         0.042543     -0.483902     -0.492108
O       5.66325     11.53441      6.94005        -0.056970     -0.342843      0.396219
O       5.70164     11.47754     11.53129        -0.334366      0.355185      0.253578
O       9.48723      3.72961      2.73283         0.665835      1.180741     -0.263765
O       9.56571      3.80664     15.90866         0.117664     -0.429292      0.098272
O       9.62406     15.32069      2.71394        -0.091088      0.096769      0.290085
O       9.53609     15.28530     15.77864         0.302827      1.089982      0.173677
O       9.48091      3.88671      6.86901         0.457493     -1.650090      0.811802
O       9.50237     15.32125      7.09192         0.355163     -0.265265      0.178486
O       9.68821      3.73765     11.45019        -0.219777      1.103329      0.140167
O       9.37224      0.08211     11.34379         0.053284     -0.781482      0.227173
O       9.54963      7.63340      2.70627        -0.099249     -0.373208      0.018105
O       9.45380      7.58508     15.75794         0.273605      1.181842      0.483190
O       9.51682      7.63901      7.10507         0.408241      0.993249      0.002776
O       9.33891      7.56936     11.52250         1.462399      0.259135     -0.858476
O       9.46004     11.48475      2.66491         0.405332     -0.872466      0.372526
O       9.54346     11.50460     15.67609         0.110300     -0.190484      0.046464
O       9.54364     11.48485      7.10255         0.282346     -0.110405      0.086701
O       9.62992     11.50085     11.43036         0.351254      0.602338     -0.016433
