  # total energy = -7880.89399890 
CRSYTAL
PRIMVEC
    15.3600000000000000    0.0000000000000000    0.0000000000000000
     0.0000000000000000   15.3600000000000000    0.0000000000000000
     0.0000000000000000    0.0000000000000000    17.440000000000000
PRESSURE
0.387175 0.85271 -4.17092 -0.061946 -0.286854 0.024674
PRIMCOORD
320 1
Pb       3.91606      3.81791      4.39891        -0.172986     -0.254384     -0.246570
Pb       3.91665      3.81152      0.01797        -0.637624      0.333570     -0.411925
Pb       3.77172      0.02199      4.33634         0.353154      0.255931     -0.394301
Pb       3.73597     15.30212     17.35130         0.075562      0.051545      0.426536
Pb       0.07619      3.76349      4.36960        -0.268808      0.177253     -0.308630
Pb       0.07536      3.92509      0.00385         0.255087     -0.167499     -0.252010
Pb       0.10747      0.03595      4.35338        -0.182371     -0.353672     -0.212340
Pb      15.23485      0.02520     17.37889         0.137091     -0.200304     -0.163668
Pb       3.75177      3.76415      8.72636        -0.144149      0.134354     -0.294673
Pb       3.81749     15.34353      8.60585        -0.101075     -0.109922      0.416954
Pb      15.11351      3.97054      8.63579         0.336138     -0.318560      0.078981
Pb      15.20211     15.31553      8.73014         0.143693     -0.183364     -0.246953
Pb       3.84392      3.64418     13.09275         0.194517      0.311973     -0.038390
Pb       3.74860      0.00941     12.92923         0.123262      0.027114      0.508183
Pb       0.03267      3.78799     13.04104         0.285209     -0.365354     -0.038481
Pb      15.30457     15.24584     13.07478         0.169607      0.176448     -0.267834
Pb       3.84515      7.66860      4.32575         0.354340     -0.197056      0.079250
Pb       3.81704      7.59497     17.43536        -0.307536      0.106572     -0.452281
Pb       0.15418      7.82551      4.32865        -1.167077     -0.552810     -0.382312
Pb      15.26330      7.69650      0.02665         0.007174      0.004537     -0.021979
Pb       3.79821      7.72915      8.61969        -0.123493     -0.430280      0.527335
Pb      15.34280      7.61574      8.63494        -0.178958     -0.170918     -0.144556
Pb       3.86555      7.55395     13.01742         0.014403      0.227207      0.494465
Pb      15.33146      7.64083     13.11064         0.378626     -0.066097     -0.131758
Pb       3.81266     11.58146      4.25067         0.021151     -0.318227      0.565302
Pb       3.96919     11.62439     17.40845        -0.899400     -0.375733      0.173116
Pb       0.09781     11.54933      4.34604        -0.502184      0.292616     -0.079064
Pb      15.26626     11.53816     17.33190         0.190902      0.040240      0.493759
Pb       3.87537     11.51267      8.63165        -0.043219     -0.247027      0.124512
Pb      15.32196     11.45543      8.72275         0.230248      0.390586     -0.422974
Pb       3.92652     11.41735     13.10657        -0.185768     -0.098810     -0.168582
Pb       0.19845     11.55146     13.03309        -0.902641     -0.149437      0.285533
Pb       7.70383      3.77301      4.28021        -0.226577      0.060969      0.684689
Pb       7.69152      3.85464      0.03059         0.251340     -0.224197     -0.379320
Pb       7.68700     15.35324      4.41884        -0.218653      0.092673     -0.280358
Pb       7.52667      0.06077     17.31243         0.257009     -0.253705      0.269890
Pb       7.54588      3.88513      8.75856         0.446062     -0.533601     -0.390796
Pb       7.66074     15.30546      8.77838         0.464043     -0.321975     -0.230192
Pb       7.88250      3.91829     13.03206        -0.505059     -0.353504     -0.076852
Pb       7.69427      0.11923     13.00357        -0.050537     -0.121986     -0.169131
Pb       7.74190      7.53966      4.33359        -0.203063      0.109911     -0.171526
Pb       7.58796      7.77681     17.43813         0.098406     -0.069360     -0.188514
Pb       7.73294      7.63905      8.70049        -0.527705     -0.096641     -0.161714
Pb       7.66991      7.73241     13.06452        -0.581486     -0.222888      0.041717
Pb       7.64248     11.48785      4.34188        -0.029271     -0.152641     -0.129037
Pb       7.70763     11.56992     17.34719        -0.032903     -0.001281      0.199194
Pb       7.59030     11.60375      8.59729         0.054938     -0.071780      0.609253
Pb       7.79645     11.53155     12.96988        -0.590285      0.221355     -0.194618
Pb      11.44619      3.76850      4.30545         0.151304      0.155498      0.107148
Pb      11.72454      3.90916      0.13191        -0.591761     -0.697528     -0.535196
Pb      11.59760     15.27414      4.37021        -0.348706     -0.081770     -0.303785
Pb      11.25533     15.25577      0.04026         0.612073      0.299800     -0.272964
Pb      11.43115      3.87316      8.67396        -0.140873     -0.379304     -0.435363
Pb      11.49686      0.03818      8.76776        -0.323692     -0.091865     -0.595002
Pb      11.58447      3.72151     13.03627        -0.601150     -0.321840      0.060765
Pb      11.52179     15.30623     13.06989        -0.201679      0.460127      0.105773
Pb      11.55739      7.55981      4.37500        -0.150748     -0.150715     -0.689335
Pb      11.49059      7.70143     17.40882         0.108214     -0.168401      0.210206
Pb      11.57538      7.72352      8.69585        -0.196191     -0.551343     -0.422682
Pb      11.34577      7.60343     13.14184         0.199605      0.023721     -0.038562
Pb      11.56339     11.43265      4.26925        -0.203131      0.232826     -0.223844
Pb      11.39818     11.42380     17.35981         0.159588      0.382942      0.064528
Pb      11.56938     11.42832      8.60807        -0.507778      0.655488      0.150574
Pb      11.55711     11.47999     13.04361         0.285284      0.033427     -0.248583
Ti       1.90665      1.97715      2.23855         0.468751     -0.291494     -0.078684
Ti       1.88963      1.92123     15.37174         0.191220     -0.443252     -0.269600
Ti       1.83276     13.42427      2.31637         0.463717      0.500148     -1.741545
Ti       1.81951     13.36870     15.40362         0.768971      0.006696     -0.287255
Ti      13.39389      1.85393      2.38986         0.073537      0.219486     -1.181197
Ti      13.43064      1.98481     15.33882        -0.591485     -1.390879     -0.266303
Ti      13.44332     13.36878      2.31032        -0.005123      0.287086     -1.766074
Ti      13.27041     13.46813     15.45134         0.658823      0.425481     -1.311718
Ti       1.81499      1.85245      6.79514         0.357557      0.205830     -0.442648
Ti       1.92754     13.41435      6.77482        -0.992888     -0.897087     -1.368256
Ti      13.38998      1.87304      6.63967        -0.718977      0.398373      0.173012
Ti      13.44715     13.42493      6.66024        -0.286047     -0.007734     -0.282760
Ti       1.87628      1.83239     10.91674         0.327001      0.166167      0.096846
Ti       1.87382     13.30092     10.91381         0.127203      1.681411      0.064510
Ti      13.47413      1.86653     11.04759        -0.581004      0.160757     -0.465427
Ti      13.38860     13.49333     11.00222         0.230114     -1.559791     -1.113198
Ti       1.93786      5.79601      2.40562        -0.191023     -1.493939     -1.827460
Ti       1.86208      5.72252     15.37193         1.225759     -0.368992     -0.439220
Ti      13.48011      5.71543      2.32884        -0.233476      0.549508      0.566474
Ti      13.43537      5.70607     15.36858         0.119775      0.833473     -1.449223
Ti       1.85416      5.66415      6.58728         0.699491      0.287014     -0.171982
Ti      13.30935      5.76334      6.60343         0.631581     -0.192231     -1.903106
Ti       1.94229      5.67233     11.05087        -0.496743     -0.355152     -0.273214
Ti      13.36294      5.68358     11.22415         0.396880      0.198164     -1.838087
Ti       1.83062      9.60560      2.32361        -0.093335      0.801548     -2.669764
Ti       1.81207      9.49039     15.48353         0.152915      1.134108      0.396677
Ti      13.31975      9.54486      2.31192         0.268275      0.114278      0.225012
Ti      13.34563      9.53930     15.31948         0.526762      0.627686      0.560546
Ti       1.81078      9.54024      6.70588         0.773275      0.857597     -0.261788
Ti      13.32984      9.63622      6.57478         0.641822     -0.865502     -1.426349
Ti       1.85476      9.50353     11.02933         0.740025      0.002646     -0.618474
Ti      13.35907      9.45062     11.07078        -0.216185      1.225624      0.266915
Ti       5.74768      1.91107      2.27431        -0.781516     -1.119144     -0.144965
Ti       5.68099      1.97357     15.42478         0.463106     -0.295892     -2.047582
Ti       5.73963     13.36364      2.31531        -0.021297      0.664108     -0.549458
Ti       5.70623     13.48649     15.30859        -0.279377      0.512505     -0.230985
Ti       5.74139      1.80793      6.73566         0.513828      1.467717     -2.055880
Ti       5.71812     13.41079      6.60294         0.390700     -0.200734     -0.792878
Ti       5.71981      1.87598     10.93082         0.037673      0.622675      0.477470
Ti       5.63265     13.42324     11.08712         1.764615     -0.107170     -1.282306
Ti       5.69307      5.71473      2.29645         0.553431      0.468776      0.623723
Ti       5.77432      5.80801     15.42496        -1.184831     -0.909297     -0.851427
Ti       5.70522      5.66668      6.70633         0.416870      0.555727     -1.751885
Ti       5.65643      5.67126     10.98877         1.102374      0.191968      0.579537
Ti       5.63914      9.56581      2.31789         0.348320      0.582774      0.194621
Ti       5.67092      9.65709     15.41201         0.123431     -0.716395     -1.378523
Ti       5.72494      9.51440      6.59412        -0.406156      0.606581     -0.170474
Ti       5.69548      9.59158     11.04763         0.228936     -0.342239      0.876604
Ti       9.51225      1.83400      2.35311         1.307825      0.059701     -0.271651
Ti       9.60533      1.90898     15.52036         0.622542     -0.018487     -1.307994
Ti       9.51266     13.40357      2.34563         0.519361     -0.429565     -1.133092
Ti       9.47794     13.41669     15.25731         0.731784      0.594169     -0.180713
Ti       9.52338      1.85320      6.70234         0.606272      0.292989     -0.852592
Ti       9.58144     13.35317      6.67156         0.923559      0.851421     -0.367313
Ti       9.58297      1.91291     10.95634         1.108917     -0.462800     -1.006835
Ti       9.58666     13.42195     11.01766        -1.131409      0.543912     -0.426407
Ti       9.57082      5.69515      2.24652         0.685848      0.406901     -0.425208
Ti       9.59929      5.72500     15.51889        -0.319191     -0.527990     -0.514640
Ti       9.56427      5.73574      6.62987        -0.454738     -0.830362     -0.413423
Ti       9.54913      5.74944     11.04416        -0.319962     -0.792587     -0.656795
Ti       9.45689      9.55289      2.35394         0.767028     -0.153982     -1.079641
Ti       9.54037      9.50883     15.34310        -0.972432      0.525862     -0.563353
Ti       9.47648      9.52127      6.64669         0.696998      0.933780     -1.461028
Ti       9.53715      9.54444     11.01015         0.171177      0.543925      0.302372
O       1.94497      1.92567      0.43715        -0.349038      0.236311      0.623617
O       1.97979      2.04525     13.57517        -0.346167     -0.930260      0.744344
O       1.70782     13.51433      0.51641         0.650269     -0.186742      1.223896
O       1.83049     13.22338     13.56164        -0.095969      0.641491      0.584230
O      13.46132      1.91739      0.58252         0.079259     -0.062502      1.067946
O      13.38156      1.93117     13.49711         0.145084      0.239851      1.101779
O      13.30672     13.43613      0.45073         0.456934      0.250982      0.212354
O      13.35859     13.56569     13.60975         0.311249     -0.400142      0.637971
O       1.84874      1.79937      5.01054         0.191179      0.367529      0.320580
O       1.80930     13.24351      4.94175         0.345639      0.611236      0.219579
O      13.39889      1.97058      4.87577        -0.004205     -0.464487     -0.377765
O      13.46408     13.33304      4.87646        -0.293324      0.233895     -0.022019
O       1.92232      1.84420      9.10527        -0.156843      0.013247      0.488826
O       1.90251     13.36053      9.13427        -0.012011     -0.003114     -0.226134
O      13.50957      1.87246      9.23085        -0.337113     -0.025405      0.640984
O      13.47159     13.44909      9.17682        -0.060267      0.101999      0.567825
O       1.87295      5.58151      0.53768         0.085976      0.616642      1.122486
O       2.02415      5.76677     13.58630        -0.798863      0.015708      0.117942
O      13.53783      5.84665      0.52247        -0.196222     -0.853818      0.388052
O      13.32555      5.71190     13.51730         0.383715     -0.201624      0.642511
O       2.05430      5.66689      4.77003        -0.647654      0.380440      1.499688
O      13.30475      5.67846      4.79066         0.022661      0.369010      0.838202
O       1.92107      5.67942      9.26835        -0.148705      0.115302      0.540730
O      13.33612      5.83675      9.30100         0.091214     -0.296224      1.280748
O       1.81096      9.60718      0.48835         0.069776     -0.249548      1.361229
O       1.72363      9.55415     13.70355         0.219570      0.035930     -0.058410
O      13.28925      9.49963      0.55213        -0.177114     -0.073277     -0.779367
O      13.29281      9.61101     13.57296         0.300565     -0.354731     -0.245665
O       1.80885      9.60685      4.88792         0.026358     -0.262210      0.451811
O      13.30633      9.61097      4.73787         0.185370      0.011984      1.044822
O       1.93158      9.58734      9.24027        -0.549313     -0.277554      0.471466
O      13.20878      9.41183      9.24158         0.780280      0.281970      1.350907
O       5.65302      1.86907      0.45222         0.428065      0.407586      1.326714
O       5.62716      1.75459     13.55443         0.423047      0.804393      1.496953
O       5.76666     13.29447      0.48743         0.162324      0.265466      1.120098
O       5.73533     13.51675     13.50823        -0.301319     -0.259573      0.963061
O       5.81495      1.81891      4.85905        -0.442782      0.010396      1.182818
O       5.73246     13.34552      4.80624        -0.025900      0.411662      0.948372
O       5.71345      1.91625      9.13455         0.021553      0.038781      0.185543
O       5.78286     13.32193      9.25140        -0.433739      0.347621      0.537421
O       5.64793      5.84757      0.51828        -0.001478     -0.409924      0.663003
O       5.63787      5.67521     13.64015         0.846581      0.518647      0.529297
O       5.73717      5.81124      4.83932        -0.551012     -0.201924      1.377433
O       5.79097      5.54619      9.22633        -0.154572      0.376144     -0.667128
O       5.64891      9.55312      0.51974         0.362292      0.164046      0.336244
O       5.60429      9.63635     13.54015         0.413676      0.039452      1.779640
O       5.67521      9.58619      4.79407         0.033845     -0.471365      1.536334
O       5.69622      9.66064      9.33420         0.034309      0.175776     -1.050690
O       9.50316      1.76082      0.58191        -0.038987      0.135687     -0.301342
O       9.69777      1.83056     13.68529        -0.350635      0.582490      0.744694
O       9.56514     13.37687      0.46537        -0.149025      0.150958      1.440907
O       9.58339     13.59866     13.46824        -0.357603     -0.583958      0.474794
O       9.59888      1.88076      4.86141        -0.130822     -0.284081      0.711195
O       9.72439     13.42759      4.86658        -0.305967     -0.256487      0.541507
O       9.62620      1.94634      9.13480        -0.019301      0.040343      0.497505
O       9.37906     13.49229      9.25126         0.649940     -0.377258      0.126662
O       9.66223      5.63751      0.42942        -0.325013      0.343283      0.765467
O       9.51462      5.75913     13.66689        -0.069448     -0.483889      1.164084
O       9.73844      5.73904      4.86402        -0.580138      0.349780     -0.015223
O       9.46095      5.64345      9.22539         0.258307      0.467032      0.537908
O       9.44870      9.49449      0.49774         0.198596      0.141356      0.721072
O       9.51228      9.47148     13.55359         0.008115      0.232335      0.560184
O       9.46629      9.47360      4.80842         0.522995      0.282823      1.429183
O       9.51414      9.45188      9.22863         0.254754      0.123742      0.428405
O       3.80103      1.93672      2.74415         1.160616      0.073887     -0.025071
O       3.85110      2.06497     15.73415        -1.422490     -0.872220      0.320897
O       3.79180     13.21868      2.63813         0.323862      0.596223     -0.088013
O       3.79721     13.41701     15.91869         0.770118     -0.263452     -0.926469
O       0.07316      1.92501      2.80150        -0.528348     -0.095705     -0.262005
O      15.32909      1.83651     15.70198         0.200205     -0.070150     -0.001899
O       0.02867     13.45541      2.70762        -0.448962      0.290875      0.485772
O      15.35688     13.46544     15.83020        -1.601930      0.227470     -0.465973
O       3.81476      1.96477      7.13970        -0.380545     -0.248100     -0.339320
O       3.83063     13.41478      6.96411         0.092280      0.041761      0.412790
O      15.23348      1.89124      7.08067         0.761423     -0.342066      0.019921
O      15.32024     13.51806      7.06139        -0.294876     -0.329528      0.374057
O       3.82119      1.79788     11.44027        -0.160083      0.360330     -0.812806
O       3.78540     13.47713     11.36354        -0.328904     -0.362669      0.008388
O       0.02993      1.90681     11.46626        -0.242879      0.024049     -0.180320
O       0.00366     13.37092     11.23046        -0.531475      0.440074      0.748572
O       3.84859      5.60723      2.80398         0.418360      0.688658     -0.431803
O       3.76730      5.76660     15.77212        -0.021089      0.454311      0.534641
O       0.09068      5.80588      2.76226        -1.036203     -0.308271      0.035660
O      15.33386      5.81563     15.68777        -0.126071     -0.497991      0.237155
O       3.81735      5.81795      7.06068        -0.680058     -0.702407     -0.105223
O      15.29844      5.75222      6.92741         0.143257      0.209455      0.385741
O       3.86012      5.78955     11.56229        -0.862971     -0.352142     -1.131266
O      15.32309      5.48628     11.38780        -0.052021      1.116063      0.176578
O       3.75873      9.71769      2.72179         0.073409     -0.029321     -0.156529
O       3.78672      9.62173     15.78428        -0.068141     -0.136203     -0.129524
O      15.22162      9.52412      2.61480         1.614446     -0.563653      0.659472
O      15.23039      9.71961     15.81988         0.061071     -0.947804     -0.311714
O       3.78616      9.56578      7.15905         0.069485      0.133793     -0.744855
O      15.31996      9.52840      7.08744        -0.585176      0.005838      0.084783
O       3.75837      9.55074     11.48745        -0.188802      0.130829     -0.182841
O      15.32505      9.52324     11.44496        -1.154017      0.150931     -0.362449
O       7.70321      1.89933      2.75470        -1.764182     -0.253150     -0.159410
O       7.61687      1.92387     15.76673         0.040737      0.357386      0.287285
O       7.65669     13.34355      2.78585         0.387059      0.637959     -0.311314
O       7.63758     13.52145     15.74727        -0.389605     -0.359985     -0.313383
O       7.66884      1.77250      6.98092        -0.862496      0.420922      0.499115
O       7.69035     13.41646      7.07369        -1.161404     -0.023664     -0.432086
O       7.78403      2.05457     11.25083        -2.564355      0.114316      0.602695
O       7.63098     13.35938     11.36822         0.102794     -0.063324      0.558154
O       7.65101      5.70822      2.71400        -0.553853      0.368786     -0.402591
O       7.62869      5.63862     16.00228         0.369096      0.412394     -0.850890
O       7.59646      5.86769      6.82567         0.888595      0.086653      0.978100
O       7.66752      5.69918     11.44934        -0.375197     -0.654224      0.073018
O       7.66232      9.58464      2.81078        -1.324095     -0.805894     -0.441130
O       7.61685      9.51120     15.74178        -0.559363      0.524268      0.131861
O       7.62967      9.66106      6.97818        -0.664082     -0.604791      0.098875
O       7.66542      9.69736     11.50854        -0.338918     -0.501579     -0.427242
O      11.44315      1.92564      2.69765         0.946334     -0.523217     -0.012133
O      11.52766      1.93569     16.02389         0.163980      0.550808     -0.654130
O      11.60573     13.41200      2.56480        -1.595430      0.026891      0.901183
O      11.39980     13.46586     15.59921        -0.033490     -0.071336      0.645873
O      11.47061      1.86142      7.15091         0.149974      0.515583     -0.186822
O      11.52802     13.28970      7.10743        -0.629197      0.409143      0.017225
O      11.51606      1.77553     11.41351         0.390507      0.203143     -0.267589
O      11.50374     13.67501     11.21946        -0.723340     -0.374974      0.378073
O      11.47457      5.77018      2.63276         0.509628     -0.610483     -0.169502
O      11.55390      5.75644     15.80436        -0.723794     -0.174653      0.029210
O      11.45961      5.77592      6.99351        -0.268547     -0.099484      0.639751
O      11.40405      5.71217     11.52645         0.862988      0.573283     -0.340429
O      11.41746      9.62909      2.62153         0.139458     -0.067377      0.375812
O      11.38910      9.50778     15.70856         0.932642     -0.220847      0.377751
O      11.51182      9.66798      7.02063        -0.730645     -0.434017     -0.027761
O      11.40877      9.56872     11.57809         0.952390     -0.862987     -0.785458
O       1.94007      3.85710      2.74716        -0.221355     -0.813051      0.053713
O       1.82855      3.78768     15.63282        -0.270975      0.476798      0.732521
O       2.08879      0.05459      2.71734        -0.950806     -0.795945      0.029141
O       2.01326     15.25360     15.84000        -0.629820      1.566548     -0.817875
O      13.39519      3.77388      2.68827         0.452111      0.642414     -0.061456
O      13.62059      3.88104     15.73782        -0.919475     -0.672706      0.379427
O      13.58739     15.30415      2.77266        -0.762927      0.795124      0.001871
O      13.31565      0.10829     15.59953         0.443373     -1.248580      0.685155
O       1.76492      3.80504      7.05752         0.482483      0.479556     -0.118593
O       1.92173     15.26481      7.01118         0.025901      1.438760      0.436928
O      13.35796      3.86859      6.90127         0.027688     -0.432945      1.047441
O      13.24444     15.32982      6.98551         0.601309      0.024998      0.110190
O       1.99721      3.72845     11.34968         0.075254      0.700452      0.000865
O       1.91969     15.33939     11.36669        -0.593280     -0.432313     -0.101594
O      13.38785      3.74898     11.38367        -0.435535      0.728895      0.177402
O      13.49874     15.35282     11.43714         0.475162     -0.067658      0.038055
O       2.03740      7.68489      2.62934        -0.213956      0.262283      0.562202
O       1.72577      7.61950     15.85368         0.706092      1.000642     -0.220339
O      13.44291      7.57962      2.63873        -0.413115      0.658008      0.498019
O      13.46921      7.59608     15.78957        -0.415576      1.376070     -0.229809
O       1.84057      7.61364      7.10272         0.111176      0.192404     -0.427577
O      13.33830      7.68074      6.85781         0.084290      0.268085      0.717004
O       1.80650      7.60178     11.43892         0.030296      0.086433     -0.060459
O      13.36528      7.61255     11.59839         0.148957      0.504277     -0.695516
O       1.70212     11.49967      2.60338         0.566842     -0.315657      0.471047
O       1.83434     11.54788     15.81416         0.184225     -0.887025      0.071531
O      13.51809     11.50875      2.49381        -0.383561     -0.492567      0.794422
O      13.29416     11.49185     15.66632        -0.242666      0.261009      0.332003
O       1.79163     11.51247      7.05706         0.118930     -1.144085      0.499399
O      13.42883     11.47815      6.89783         0.422248     -0.087355      0.955056
O       1.80016     11.50030     11.27335         0.502936     -1.343593      0.449944
O      13.22943     11.59415     11.39822         0.428916     -0.999445     -0.168168
O       5.74412      3.79786      2.69602         0.221001     -0.146339     -0.377158
O       5.55930      3.90321     15.78100         1.272982     -0.468313      0.228882
O       5.79015     15.26923      2.65999        -0.364012      0.774420     -0.005271
O       5.66493      0.03722     15.79896         0.026981     -0.757461     -0.111678
O       5.83972      3.79131      6.98447        -0.432474      0.592488      0.243947
O       5.67509      0.00287      7.03083         0.016782     -1.524303      0.188137
O       5.59273      3.77122     11.30275         0.468871      0.107954      0.221586
O       5.73614      0.05099     11.32019         0.472757     -0.927378      0.066573
O       5.54629      7.72244      2.69360         0.587911     -1.073869     -0.194934
O       5.69632      7.68854     15.81875         0.108370      0.363534     -0.101808
O       5.70441      7.69475      7.28573         0.367834      0.289273     -1.080850
O       5.77992      7.60668     11.25555         0.012538      0.688515      0.469676
O       5.85840     11.49230      2.75957        -0.546827     -0.525297     -0.242388
O       5.75271     11.58724     15.78301         0.016019     -0.719865     -0.486138
O       5.66761     11.55151      6.96547         0.278771     -1.085316      0.290929
O       5.66733     11.52962     11.46306        -0.173282     -0.313683      0.215632
O       9.50767      3.80783      2.69871         0.333227      0.042336     -0.172542
O       9.60719      3.76453     15.93315        -0.292611      1.165782     -0.262865
O       9.57709     15.29042      2.77719         0.068186     -0.235780     -0.213427
O       9.53582      0.02045     15.73055         0.074599     -1.047056      0.539038
O       9.47192      3.82618      6.86517         0.314345      0.439621      0.834222
O       9.46372     15.31896      7.06934         0.988465     -0.655712      0.067723
O       9.73034      3.79865     11.38214        -0.441011      0.692296      0.484885
O       9.36845      0.04017     11.30013         0.599254     -0.634729      0.135513
O       9.58746      7.57402      2.70304        -0.404487      0.600176     -0.119649
O       9.41069      7.63533     15.69017         0.620212     -0.678043      0.504024
O       9.58661      7.69587      7.08098        -0.185380     -0.176614     -0.040948
O       9.41496      7.63201     11.55698         0.840675      0.207818     -0.898728
O       9.42903     11.47564      2.58276         0.857623      0.356471      0.452633
O       9.53943     11.47760     15.67994        -0.187570      0.456787     -0.106248
O       9.55013     11.47401      7.09192         0.091697     -0.233449     -0.070603
O       9.66660     11.46105     11.40534        -0.120164      0.755201     -0.042558
