  # total energy = -7880.98189166 
CRSYTAL
PRIMVEC
    15.3600000000000000    0.0000000000000000    0.0000000000000000
     0.0000000000000000   15.3600000000000000    0.0000000000000000
     0.0000000000000000    0.0000000000000000    17.440000000000000
PRESSURE
0.611287 0.869264 1.53728 -0.049695 -0.217673 -0.031801
PRIMCOORD
320 1
Pb       3.93415      3.80068      4.39510        -0.050980      0.029006     -0.671135
Pb       3.88996      3.81228      0.03033         0.343216      0.127451     -0.394076
Pb       3.76890      0.03040      4.34425         0.466646      0.035976      0.017046
Pb       3.78296     15.28729     17.35512        -0.208187      0.336728     -0.622974
Pb       0.08410      3.79712      4.36621        -0.139942     -0.194177     -0.590681
Pb       0.06179      3.87280      0.01255        -0.681672      0.065918     -0.605254
Pb       0.10516      0.03710      4.36995        -0.583264      0.064629     -0.021794
Pb      15.23718      0.06962     17.37070         0.243562     -0.197802     -0.354548
Pb       3.74852      3.80191      8.70010         0.389248      0.186481     -0.346611
Pb       3.77027     15.31284      8.65047         0.380424      0.001545     -0.378748
Pb      15.10328      3.96256      8.64501         0.617627     -0.336342      0.295696
Pb      15.22862     15.29054      8.74115         0.036519      0.097224     -0.313185
Pb       3.93272      3.63771     13.06831        -0.226826      0.582756     -0.935350
Pb       3.78464      0.01151     12.93755        -0.314634     -0.181270     -0.052540
Pb       0.03213      3.77826     13.02200        -0.203053     -0.115523      0.082103
Pb      15.28133     15.21184     13.06147         0.280275      0.507904     -0.596106
Pb       3.83777      7.67576      4.32037         0.479020     -0.036862     -0.083981
Pb       3.81006      7.63442      0.02832         0.048397     -0.173834     -0.583278
Pb       0.13739      7.77734      4.29459        -0.269109     -0.823927      0.644158
Pb      15.34128      7.70376      0.05264         0.013043     -0.531406     -0.747590
Pb       3.76654      7.70309      8.62902         0.032498     -0.116510     -0.201708
Pb      15.28255      7.63056      8.64212        -0.027904      0.414965      0.038702
Pb       3.89296      7.56406     13.06154        -0.382077      0.260068     -0.659991
Pb      15.33023      7.65756     13.07933         0.185747      0.018726     -0.108360
Pb       3.81120     11.54715      4.29268         0.293683     -0.145733      0.098770
Pb       3.92273     11.59585     17.42374        -0.406297     -0.285168     -0.784957
Pb       0.10851     11.55780      4.31408        -0.854608     -0.233730     -0.015885
Pb      15.25103     11.50026     17.38175        -0.075578      0.099329     -0.347981
Pb       3.86678     11.47806      8.65395        -0.285995      0.127974      0.128098
Pb       0.01411     11.47784      8.72864        -0.846433     -0.167978     -0.345055
Pb       3.92233     11.38805     13.05605        -0.760723      0.268229     -0.279615
Pb       0.17628     11.49498     13.02194        -0.151866      0.085736     -0.229638
Pb       7.66634      3.79353      4.22692         0.136064     -0.028283     -0.537201
Pb       7.70786      3.82556      0.05172        -0.531190     -0.070954     -0.041334
Pb       7.65739     15.32870      4.42266         0.229093     -0.068470     -0.806868
Pb       7.50970      0.02566     17.33958         0.434932      0.108114      0.206746
Pb       7.50490      3.91549      8.71330         0.229029     -0.547931     -0.558533
Pb       7.66971     15.35708      8.78694        -0.646059      0.528372     -0.934772
Pb       7.85699      3.89862     13.01815        -1.061050     -0.256692     -0.091739
Pb       7.69932      0.09576     12.97007        -0.140459      0.137349      0.170210
Pb       7.72974      7.57354      4.33028         0.037989     -0.102364     -0.167270
Pb       7.58119      7.74887      0.02546        -0.247484     -0.106190     -0.612536
Pb       7.73279      7.60619      8.72692         0.328107      0.296396     -0.811708
Pb       7.71617      7.72442     13.09562        -0.781963     -0.364981     -0.203315
Pb       7.64047     11.43745      4.35690         0.037236      0.446416     -0.750733
Pb       7.65911     11.61490     17.29902        -0.096861     -0.529560     -0.461873
Pb       7.66286     11.59116      8.66678         0.253511     -0.441395     -0.473622
Pb       7.78385     11.59307     12.93438        -0.695086     -1.167445      1.487970
Pb      11.46710      3.75296      4.29884        -0.182622     -0.025161     -0.391525
Pb      11.68406      3.89278      0.16782        -0.144245     -0.316507     -1.424108
Pb      11.63620     15.29765      4.38397        -0.518457     -0.393190     -0.831074
Pb      11.23530     15.25681      0.03918         0.704263      0.406889     -0.101058
Pb      11.47464      3.86622      8.63600        -0.147659     -0.086841      0.139664
Pb      11.45773      0.05868      8.75880         0.592783     -0.173757     -0.691562
Pb      11.52959      3.72750     13.00977         0.258639      0.488343      0.263375
Pb      11.47440     15.28966     13.10677         0.141337      0.291081     -0.644852
Pb      11.58034      7.52156      4.36939        -1.064786      0.679511     -0.193219
Pb      11.44817      7.72420     17.43066         0.140093     -0.244799     -0.879383
Pb      11.61697      7.71832      8.66361        -1.074562     -0.231607      0.317403
Pb      11.34804      7.56746     13.15862         0.615839      0.092981     -0.370190
Pb      11.51692     11.44237      4.26938        -0.041342      0.791902     -0.772975
Pb      11.40355     11.45940     17.35958         0.012211     -0.207017     -0.187965
Pb      11.48618     11.41553      8.64979         0.409549      0.046962     -0.191114
Pb      11.57874     11.49230     13.04296        -0.178885     -0.118423     -0.157934
Ti       1.90798      1.90293      2.24001         0.486473     -0.124165      1.801535
Ti       1.90220      1.95994     15.33485        -0.598461     -0.574407      0.144657
Ti       1.91187     13.47960      2.28723        -0.392689      0.066070     -0.644696
Ti       1.80757     13.41930     15.32709         0.453747      0.440488      0.567118
Ti      13.48057      1.85067      2.27891        -0.456638     -0.194657     -0.199711
Ti      13.35462      1.84338     15.39313         0.792918      0.977939      1.566293
Ti      13.49746     13.37861      2.26006        -1.426378      0.227368      2.584980
Ti      13.35775     13.41384     15.34103         0.084403      0.418555      1.290563
Ti       1.84462      1.91206      6.71109         0.111182     -0.368610     -0.863513
Ti       1.90124     13.37639      6.70776        -0.174185      0.363469      1.508489
Ti      13.40069      1.91205      6.60765        -0.330739     -0.633796      2.542149
Ti      13.39859     13.44877      6.59971         0.361474     -0.479983      1.663099
Ti       1.88198      1.94416     10.87382        -0.371156     -0.862289      2.205660
Ti       1.96209     13.48556     10.91889        -0.867890     -0.302688      0.606179
Ti      13.41692      1.91138     11.03683         0.435738     -0.022023      0.144456
Ti      13.36591     13.37645     10.98039         1.000329      1.123779      0.018018
Ti       1.90146      5.70620      2.38359         0.422332      0.165395     -0.023214
Ti       1.91391      5.74475     15.37098        -0.552790      0.446537      1.715238
Ti      13.39751      5.73012      2.26983         1.149885     -0.500105      0.141605
Ti      13.41638      5.72858     15.33034        -0.456521     -0.659780      1.339647
Ti       1.91010      5.69694      6.49866        -0.495604      0.719155      1.865870
Ti      13.36086      5.81978      6.56704        -0.651165     -0.303608      2.016613
Ti       1.88548      5.72864     11.04235         0.147527     -0.209933     -0.095143
Ti      13.43304      5.81861     11.15677        -0.262342     -0.564506      1.225338
Ti       1.91676      9.62741      2.24274        -0.044887     -0.641558     -0.220735
Ti       1.80204      9.56386     15.41191         0.917251     -0.362440     -0.244468
Ti      13.32481      9.45150      2.30173        -0.049146      1.984909      0.349569
Ti      13.39165      9.54629     15.32900        -0.461985     -0.307289      1.089177
Ti       1.84486      9.56188      6.70951        -0.913680      0.107463      1.210783
Ti      13.32753      9.61848      6.49226         1.056403      0.596867      1.992971
Ti       1.72770      9.53757     10.97648         1.183937      0.284299      1.241454
Ti      13.31694      9.61490     11.08979         0.567656     -1.569608     -0.836723
Ti       5.72890      1.82521      2.31983         0.705660      1.011538      0.673896
Ti       5.75867      1.94109     15.30276        -0.056539      0.086074      1.405485
Ti       5.71938     13.37550      2.25033         0.796859      0.815952      0.647742
Ti       5.68651     13.47351     15.28186         0.077292     -0.610420      0.039889
Ti       5.73815      1.90042      6.64744        -0.203366     -0.033309      2.274909
Ti       5.85702     13.36061      6.62156        -1.434849      1.650741     -0.386407
Ti       5.78709      1.92907     11.03465        -0.406061      0.049936     -0.574528
Ti       5.82665     13.41918     11.05584        -2.151801      0.266283     -0.150097
Ti       5.80192      5.77749      2.29884        -0.470287     -1.193218      0.046006
Ti       5.74593      5.73393     15.35657        -0.026290      0.220160      1.049870
Ti       5.75001      5.87865      6.61985         0.092382     -1.814120      1.206668
Ti       5.68535      5.72742     10.94688         0.089241     -0.357921      1.118921
Ti       5.73543      9.56020      2.32691        -0.103038     -0.230379     -0.383907
Ti       5.59724      9.61796     15.34649         0.861829     -0.385957      1.243508
Ti       5.76911      9.64281      6.63640        -0.248455     -1.273450     -0.689641
Ti       5.64349      9.57867     11.01508        -0.425824     -0.758924     -0.636621
Ti       9.62739      1.79528      2.37587        -1.268639      0.205096      0.998089
Ti       9.59492      1.93093     15.42687         0.066811      0.071640      1.271012
Ti       9.53507     13.37622      2.24365         0.389405      0.492253      2.541970
Ti       9.51847     13.45556     15.34697        -0.512209     -0.659246      0.085950
Ti       9.54024      1.88643      6.67557         0.279194      0.460010      1.304599
Ti       9.76224     13.40572      6.64222        -1.327164     -0.201593     -0.604108
Ti       9.68262      1.88924     10.93155        -1.607400      0.968182      1.566330
Ti       9.53678     13.38452     10.98452         1.630566      0.617033     -0.245149
Ti       9.68089      5.76086      2.23434        -1.726644     -0.395026      1.578767
Ti       9.48549      5.66374     15.47023         0.869981      0.476694      0.485173
Ti       9.58832      5.71277      6.66008         0.092903      0.802139     -0.078953
Ti       9.55042      5.79509     11.05717         0.479880     -0.260224     -1.492783
Ti       9.51507      9.55342      2.33963         0.164605      0.489164      1.095934
Ti       9.48124      9.47448     15.30586        -0.460758      0.904466      1.466617
Ti       9.57641      9.58663      6.46289        -0.430091     -1.119473      2.229919
Ti       9.52135      9.55227     11.00072         0.087429     -0.305221      0.833828
O       1.97740      1.93829      0.52908        -0.080190     -0.243294     -1.042045
O       1.92281      1.95369     13.56924         0.314164      0.309311     -0.067379
O       1.89576     13.57782      0.50809         0.064268     -0.468726      0.721152
O       1.90691     13.38506     13.56365        -0.269142      0.081091      0.645837
O      13.52203      1.75080      0.49673        -0.369413      0.573561      0.927533
O      13.23777      1.92509     13.67927         0.082846     -0.173314     -1.530992
O      13.43047     13.48310      0.57621        -0.031788     -0.188755     -1.840281
O      13.50639     13.29504     13.61697        -0.672693      0.279049     -1.087688
O       1.92519      1.92655      4.84484        -0.310254     -0.029338      1.506271
O       1.95370     13.28914      4.97215        -0.421418      0.260900     -1.064173
O      13.45527      1.86003      4.91797         0.081110      0.490218     -2.223356
O      13.27466     13.37526      4.87008         0.359549     -0.056324     -0.676515
O       1.94351      1.89118      9.17192        -0.131759     -0.025641     -2.062843
O       1.88522     13.51672      9.13330         0.129673     -0.310556      0.496892
O      13.35244      1.81786      9.27683         0.045102      0.167173     -0.105499
O      13.36528     13.58201      9.23503        -0.056946     -0.345592      0.542203
O       1.88394      5.79334      0.61189        -0.055589     -0.145098      0.740181
O       1.81002      5.66028     13.65359         0.572335      0.143910     -1.040258
O      13.51572      5.67800      0.50775        -0.585015      0.284744      0.146963
O      13.43089      5.65624     13.58451        -0.044227      0.164374     -0.560115
O       1.91533      5.67130      4.76822        -0.038728     -0.095561     -0.981188
O      13.15669      5.88689      4.87148         0.769436     -0.845741     -1.114170
O       1.87198      5.78869      9.28984         0.059817      0.137764     -0.314509
O      13.34617      5.76705      9.45557         0.355658      0.016357     -2.544804
O       1.82491      9.50352      0.45631         0.051905      0.408061      1.400684
O       1.85058      9.51367     13.63352        -0.183818      0.202987      0.304875
O      13.30392      9.48438      0.52826         0.358157      0.190214     -0.064802
O      13.44585      9.66572     13.59143        -0.466739      0.040228     -0.213641
O       1.77513      9.63380      4.99318         0.031921      0.261228     -1.755551
O      13.46513      9.58144      4.73568        -0.113992     -0.098295      0.236249
O       1.69868      9.57945      9.23333         0.444398     -0.464703     -0.852950
O      13.29183      9.55145      9.31150        -0.145093     -0.102511      0.521902
O       5.80428      2.00211      0.60241        -0.236364     -0.588777     -1.225557
O       5.79450      1.83769     13.55058        -0.336035      0.173653     -0.242652
O       5.63351     13.37367      0.46672         0.236845     -0.032240      0.014542
O       5.70675     13.39248     13.52798        -0.130690      0.323452     -0.478771
O       5.75673      1.82616      4.92547        -0.193971      0.188473     -1.065749
O       5.79882     13.49345      4.83373        -0.306556     -0.659980      0.634265
O       5.78800      1.95759      9.26119        -0.214730      0.005373     -0.256729
O       5.76679     13.31662      9.28419         0.448714      0.083935      0.041130
O       5.68357      5.76717      0.55146         0.077945      0.184301     -0.641744
O       5.89799      5.72723     13.61772        -0.667242     -0.045899     -0.294909
O       5.67652      5.90704      4.90566         0.210410     -0.469718     -1.024166
O       5.65802      5.57640      9.18284         0.037236      0.539579     -0.362080
O       5.69786      9.45910      0.53606         0.086811      0.488230      0.269075
O       5.65374      9.72972     13.62712        -0.078566     -0.864468     -1.494633
O       5.67958      9.72317      4.84918         0.064361     -0.127068      0.531617
O       5.61558      9.60051      9.22669         0.247712      0.047094      0.144840
O       9.57133      1.78209      0.65459        -0.098753     -0.111121     -1.668486
O       9.56356      1.81899     13.69827         0.237383      0.062004     -0.909862
O       9.44494     13.45424      0.51863         0.226756     -0.015569     -1.858625
O       9.51325     13.51188     13.59912         0.178033     -0.079068     -1.183248
O       9.48641      1.93490      4.96354         0.093202      0.082781     -1.145573
O       9.79793     13.26993      4.87256        -0.424115      0.428017      0.954760
O       9.59274      2.00275      9.23730         0.066322     -0.527994     -1.538576
O       9.62626     13.30298      9.22362        -0.701174      0.334281      0.364467
O       9.54683      5.64568      0.52536         0.287992      0.422623     -0.995527
O       9.41666      5.66098     13.69068         0.290446      0.520538     -0.810186
O       9.74419      5.87318      4.88583        -0.220199     -0.650883     -0.281088
O       9.52650      5.92665      9.25389        -0.203514     -0.504612      1.346286
O       9.34971      9.46397      0.64208         0.385903      0.356223     -2.187196
O       9.43141      9.58325     13.57307         0.533722     -0.285451     -0.867401
O       9.60610      9.53853      4.73023        -0.169069      0.359628     -0.402071
O       9.43062      9.42515      9.27257         0.140050      0.469276     -0.089794
O       3.85360      1.98701      2.73313        -0.697964     -0.149163      0.144759
O       3.80659      1.88292     15.79649         0.794865      0.757764     -0.196600
O       3.81300     13.35953      2.65790        -0.667575      0.047148      0.129560
O       3.79065     13.29960     15.76864        -0.823802      0.619487      0.071653
O       0.02267      1.86968      2.70956        -0.705458     -0.181887      0.062427
O       0.02057      1.86555     15.68355        -0.331766      0.269317      0.389729
O      15.32032     13.60215      2.76984         0.924399     -0.894402     -0.180876
O      15.22925     13.50433     15.79831         1.395217     -0.881112     -0.120409
O       3.80138      1.97116      7.05293        -0.317095     -0.143485      0.017326
O       3.79537     13.34700      7.04808         0.090971     -0.272538      0.083898
O      15.28894      1.77923      7.12956         0.085645      0.755710     -0.370526
O      15.22795     13.45129      7.18495         0.856254      0.036387     -0.789462
O       3.81559      1.78635     11.36245         0.153669     -0.083331      0.332346
O       3.78766     13.55518     11.36447         0.665432     -0.125577     -0.164188
O      15.32472      2.01310     11.48235         0.018912     -0.128244     -0.576818
O      15.33634     13.45682     11.49392        -0.280291     -0.990030     -0.575719
O       3.89837      5.70048      2.77176        -1.329789     -0.371967      0.067738
O       3.80815      5.80382     15.88104        -0.100983     -0.765314     -0.585713
O      15.27194      5.71287      2.77556         0.926645      0.488305     -0.042407
O      15.28195      5.76648     15.82628         0.171870      0.344073     -0.053789
O       3.70810      5.72319      6.98795         0.459113      0.190268     -0.003933
O      15.18916      5.81757      7.06995         0.435490     -0.323122     -0.498696
O       3.83351      5.63444     11.47490        -0.405073      0.646230      0.274314
O       0.03147      5.64467     11.48428        -0.100277     -0.376031      0.052933
O       3.83435      9.69405      2.73474        -0.874602     -0.321908     -0.157071
O       3.71596      9.63472     15.73451         0.626888      0.070901      0.261723
O       0.08883      9.35771      2.77814        -0.437116      1.264062     -1.280212
O      15.25522      9.47394     15.79168        -0.693181      0.485715      0.188004
O       3.70723      9.61944      7.03817         1.012699     -0.079775      0.274028
O      15.16374      9.55089      7.24085         0.121689     -0.092806     -1.026888
O       3.74201      9.43325     11.40975         0.503855      0.222038      0.156387
O      15.26016      9.65746     11.47953         0.240935      0.030114     -0.078686
O       7.62085      1.82618      2.85976        -0.020432      0.165402     -0.035811
O       7.65209      2.02859     15.85404         0.105904     -1.094726     -0.249991
O       7.64080     13.49611      2.68494        -0.476786     -0.469208      0.040478
O       7.54133     13.44293     15.68516         0.745836     -0.044839      0.515946
O       7.59353      1.82225      7.15636         0.718853     -0.030592     -0.122163
O       7.65205     13.42002      6.93738         1.047925     -0.151931      0.620581
O       7.60066      1.91337     11.35125         2.350874      0.118002      0.357534
O       7.65372     13.35011     11.52030         1.039791      0.279217     -1.096339
O       7.68329      5.82932      2.72452         1.123339     -0.372447      0.141569
O       7.58426      5.75105     15.86753         0.671458     -0.095162      0.185579
O       7.71379      5.84460      6.95386        -1.428108     -0.228532      0.349416
O       7.55913      5.67981     11.45904         1.789623      0.511046     -0.464946
O       7.57237      9.58792      2.72938         0.626076      0.039154      0.445368
O       7.59920      9.53758     15.70533         0.126985     -0.000158      0.416144
O       7.62809      9.46873      6.85821         0.257089      0.448392      0.280472
O       7.57062      9.52187     11.47739         0.675975      0.349429     -0.406931
O      11.45827      1.79935      2.71402         1.665765      0.653460      0.260142
O      11.49663      1.96912     15.86867        -0.987449     -0.921460      0.082680
O      11.41286     13.43361      2.71552         1.212483     -0.021572     -0.473430
O      11.39142     13.47580     15.65923         0.846298      0.019494      0.375052
O      11.46335      1.96934      7.03281         0.125135     -0.106537      0.103192
O      11.52236     13.36457      7.17703         0.203282     -0.145852     -0.125863
O      11.47881      1.89243     11.48379         0.225006     -0.503453     -0.048100
O      11.47907     13.52501     11.37402        -0.312219     -0.283283      0.484212
O      11.51822      5.63213      2.67902        -0.252429      0.623347     -0.134730
O      11.45464      5.69168     15.76679         0.206455      0.131674      0.321656
O      11.44231      5.69981      7.12882         1.296354      0.029208      0.008446
O      11.53388      5.97471     11.43930        -1.364779     -0.847354      0.510522
O      11.44571      9.62641      2.61357         0.860158     -0.153678     -0.061020
O      11.40288      9.53072     15.86483         0.060491      0.573768     -0.304454
O      11.41698      9.63689      7.04104         0.479350      0.157245     -0.515851
O      11.46951      9.40601     11.53612        -0.353821      0.835365      0.025612
O       1.80598      3.73220      2.72190         0.388305      1.365541     -0.056907
O       1.72829      3.91408     15.88945         1.368324     -0.786236     -0.515589
O       1.89721     15.33122      2.86653         0.659453      0.126874     -0.686423
O       1.95159      0.04468     15.65736         0.014990     -1.423021      0.257575
O      13.39379      3.84488      2.64165        -0.083694     -1.174188      0.272304
O      13.36346      3.75494     15.87424         0.550052      0.746376     -0.007480
O      13.37769     15.34178      2.70742         0.211172      0.303696      0.230854
O      13.54145     15.32862     15.80768        -1.460444     -0.180520     -0.573588
O       1.70216      3.85246      6.89303         0.083596     -0.034675      0.409747
O       1.88187      0.01073      7.01937         0.279114     -0.601864     -0.109254
O      13.34752      3.80909      7.18493         0.352265      0.743366     -1.002228
O      13.31208     15.34483      6.93156        -0.219623     -0.075556      0.364762
O       2.06923      3.74295     11.20272        -0.455641      1.070602      0.765935
O       1.73873     15.33914     11.31950         0.544093      0.042418      0.256658
O      13.28122      3.81442     11.40618         0.284004     -0.008091      0.364151
O      13.50539      0.02221     11.43791        -0.623848     -0.687715      0.420869
O       2.07887      7.63966      2.82175        -0.772954      0.308943     -0.630907
O       1.90623      7.67407     15.89060        -0.377278     -0.364510     -0.272265
O      13.31417      7.65461      2.63256         0.201048     -1.048264      0.229377
O      13.28419      7.65776     15.73810         0.165232      0.127494     -0.188343
O       1.74457      7.67935      6.90683         0.355210     -1.020053      0.481071
O      13.20174      7.72360      7.00547         0.623748     -0.587481     -0.541006
O       1.77296      7.66109     11.46790         0.308654     -0.574148     -0.055747
O      13.59578      7.66372     11.47926        -0.268925      0.593114      0.315408
O       1.78228     11.54661      2.72185         0.258417     -0.408657     -0.618922
O       1.68896     11.45483     15.85358         0.252175      1.064027     -0.357945
O      13.49631     11.46189      2.65937         0.230078      0.106908     -0.166913
O      13.24422     11.56158     15.84372         0.641086     -1.081227      0.002356
O       1.70917     11.45491      7.16466         0.461121      0.864282     -0.342170
O      13.40242     11.48509      7.17194        -0.385097     -0.085303     -0.828406
O       1.94972     11.42797     11.42003        -0.161051      0.901327     -0.308980
O      13.29408     11.47610     11.32077        -0.221609      1.017463      0.382229
O       5.88311      3.86879      2.54222        -0.308620     -0.704960      1.302174
O       5.80102      3.79766     15.83898        -0.933763      0.124177     -0.371774
O       5.61763     15.32037      2.62633         0.074965     -0.459066      0.132129
O       5.76648      0.00453     15.74753        -0.565479      0.402923     -0.049882
O       5.73446      3.85817      7.06243         0.132648     -0.175781     -0.395450
O       5.70255     15.27405      7.13603        -0.013554      0.108520     -0.120149
O       5.75583      3.78999     11.45987        -0.521471      0.161816      0.053590
O       5.94883     15.32631     11.33462        -0.792831     -0.735586      0.137139
O       5.76746      7.59874      2.69567        -0.534690      2.304327      0.431564
O       5.70783      7.64312     15.68166        -0.304141      0.619278      0.175454
O       5.70030      7.66604      7.02157        -0.617050      0.999179      0.482553
O       5.67211      7.58720     11.24378         0.103658      0.637758      0.595567
O       5.75596     11.51535      2.68562         0.009721     -0.045644     -0.033931
O       5.69632     11.53489     15.62556         0.042036     -0.281362      1.053953
O       5.78108     11.44737      7.14268        -0.113569      0.806864     -0.236705
O       5.60169     11.46145     11.42076         0.543259      0.505063     -0.177971
O       9.60273      3.77466      2.66876        -0.332281      0.732614      0.555167
O       9.54812      3.83824     15.86375        -0.091167     -0.912439     -0.062274
O       9.51903     15.34147      2.82236         0.233198     -0.988698     -0.006081
O       9.51759     15.29327     15.84516        -0.240905      1.336780      0.021535
O       9.53803      3.83576      7.13506        -0.257221     -0.302335     -0.325513
O       9.70923     15.31919      7.06510        -0.734085     -0.118279      0.065583
O       9.63367      3.83588     11.42014        -0.026293      0.539959     -0.064128
O       9.57150      0.04840     11.27480        -0.423760     -1.554818      0.306175
O       9.58324      7.68690      2.64848         0.231804     -1.202019      0.168974
O       9.55749      7.61993     15.74589        -0.164329      0.307158      0.103244
O       9.63305      7.63985      7.01368        -0.137711      1.114736      0.026882
O       9.64344      7.68190     11.42352        -1.406336     -0.407812      0.743446
O       9.61923     11.51316      2.61724        -0.769359     -0.387687      0.262972
O       9.45814     11.52480     15.69062         0.374805     -0.373551      0.500527
O       9.50661     11.47125      7.02748        -0.047584     -0.128852      0.029068
O       9.64343     11.48806     11.37457        -0.156624      0.076970      0.054036
