  # total energy = -7865.63322361 
CRSYTAL
PRIMVEC
    15.010000000000000    0.0000000000000000    0.0000000000000000
     0.0000000000000000   15.010000000000000    0.0000000000000000
     0.0000000000000000    0.0000000000000000    16.400000000000000
PRESSURE
19.1564 19.5087 14.1129 -0.020441 -0.083412 -0.011884
PRIMCOORD
320 1
Pb       3.59361      3.71605      3.97658         1.115496     -0.628844      1.770182
Pb       3.70849      3.69221     16.35437        -0.044054      0.152158      0.502287
Pb       3.81085     14.88392      4.10015        -0.269180      0.568058      0.093118
Pb       3.72341     14.97703      0.02975         0.200690      0.039395      0.703327
Pb       0.00702      3.76288      4.14801        -0.051846      0.007092      0.038130
Pb      14.97689      3.79632      0.06969         0.006960     -0.516750     -0.548917
Pb      14.99843     14.97104      4.08842        -0.046531      0.077246      0.148378
Pb       0.02611      0.02212     16.36248        -0.133752     -0.070030      0.866497
Pb       3.77827      3.73773      8.13158        -0.171053      0.014307      0.599309
Pb       3.73753      0.04588      8.19884         0.242203     -0.717874      0.315765
Pb      14.94674      3.67364      8.07700         0.065381      0.845293      1.480676
Pb       0.03227      0.08156      8.20771         0.116754     -0.921204      0.197399
Pb       3.73395      3.67944     12.41822         0.184123      0.201303     -0.543916
Pb       3.73836     14.97682     12.24330         0.291304     -0.114602      0.829837
Pb      14.91956      3.76203     12.29218         0.669890      0.319536      0.129399
Pb      14.93104     15.00730     12.31230         0.736996     -0.310116      0.192780
Pb       3.86410      7.48355      4.14843        -0.659673      0.239588      0.095780
Pb       3.71976      7.56353     16.26340         0.182331     -0.365977      1.371268
Pb      14.99824      7.51329      4.10037        -0.007115      0.075080      0.148264
Pb       0.04053      7.47831     16.37576        -0.218325     -0.154490      0.538987
Pb       3.75073      7.42982      8.32031        -0.357795      0.822004     -0.043046
Pb      14.97993      7.47368      8.10536        -0.478607      0.190133      1.407964
Pb       3.73681      7.37313     12.38233        -0.328642      0.261147     -0.241726
Pb      14.96918      7.58000     12.31854        -0.082419     -0.389821     -0.614076
Pb       3.80859     11.21653      4.01209        -0.024613      0.242133      0.468675
Pb       3.74163     11.35939      0.07895        -0.102786     -0.174015      0.266977
Pb      14.96369     11.28494      4.11680         0.107588     -0.242765     -0.071695
Pb      15.00025     11.12670     16.39123         0.214067      0.895023      0.968979
Pb       3.72122     11.30135      8.19252        -0.030968     -0.093141      0.310658
Pb      14.95131     11.29180      8.15114         0.416238     -0.509715      0.618760
Pb       3.71858     11.15215     12.33767        -0.038943      0.435472      0.028812
Pb      14.95406     11.19031     12.30014         0.103513      0.447407      0.005241
Pb       7.43699      3.72998      4.14260         0.193255      0.109707      0.613476
Pb       7.44404      3.67094      0.03701         0.418165      0.181812      0.484347
Pb       7.49007      0.00352      4.05838         0.211843     -0.062240      1.156295
Pb       7.63422     14.99542      0.03151        -0.492258      0.314214      0.253361
Pb       7.46440      3.79986      8.21077         0.342630     -0.256262      0.309075
Pb       7.43193     14.86849      8.20638         0.574491      0.535333      0.825857
Pb       7.52791      3.69314     12.36324        -0.398038      0.405878     -0.532649
Pb       7.43574      0.08964     12.26212         0.519226     -0.655644      0.601755
Pb       7.56864      7.46620      4.19959        -0.194357      0.115985     -0.045128
Pb       7.44083      7.45915     16.38448         0.622576      0.080912      0.468252
Pb       7.48083      7.48127      8.07906         0.817565      0.218564      1.409566
Pb       7.42691      7.48441     12.24182         0.414668      0.112005      0.211233
Pb       7.41634     11.17421      4.10141        -0.152479      0.264378      0.621241
Pb       7.45917     11.21992     16.36883         0.132301     -0.293867      0.176722
Pb       7.46029     11.23381      8.23407         0.070630     -0.013397     -0.005019
Pb       7.45558     11.24715     12.36391         0.145547     -0.020032     -0.193604
Pb      11.37532      3.71154      4.11964        -0.726068      0.198108      0.188996
Pb      11.21705      3.70643      0.02241        -0.113132      0.126705      0.643493
Pb      11.16530     14.98393      4.07213         0.502829     -0.074908      0.216000
Pb      11.35185      0.01721     16.33476        -0.379865      0.417986      1.053695
Pb      11.19747      3.67927      8.24262        -0.008144      0.031559      0.160913
Pb      11.22899     14.99383      8.13481        -0.342341     -0.391617      1.052665
Pb      11.23778      3.73983     12.35616        -0.056106      0.043078     -0.425067
Pb      11.22321     14.84752     12.26528        -0.509121      0.922188      0.891296
Pb      11.21684      7.49957      4.05929         0.863152     -0.351722      0.150005
Pb      11.29572      7.47244     16.31918        -0.915338      0.176984      1.168002
Pb      11.35172      7.51756      8.17746        -0.540343     -0.025578      0.234254
Pb      11.15830      7.57705     12.35991         0.337188      0.030871     -0.814668
Pb      11.14498     11.26121      4.07810         0.942878     -0.192208      0.586157
Pb      11.20446     11.37937     16.36281         0.049088     -1.044158      0.614111
Pb      11.29265     11.28064      8.08760        -0.972097     -0.116781      0.741348
Pb      11.25793     11.18192     12.33918         0.042932      0.135907     -0.067735
Ti       1.84062      1.85161      2.15762         0.043152     -0.316796     -0.291138
Ti       1.84345      1.85805     14.45404        -0.269069      0.494574      0.834762
Ti       1.91188     13.13920      2.20997        -0.501169     -0.538353      0.026127
Ti       1.89450     13.11589     14.41718        -0.344311      0.091703      2.128886
Ti      13.13258      1.88582      2.15066        -0.540842     -1.180274      0.331333
Ti      13.12667      1.89019     14.32765         0.018123      0.599850      1.319349
Ti      13.08548     13.11744      2.21261         0.191773      0.242324      0.263951
Ti      13.12714     13.15042     14.51281         0.304352     -0.259462     -0.042426
Ti       1.88463      1.90082      6.24864         0.438979     -1.511696     -0.700211
Ti       1.80342     13.09466      6.19306         0.812006      0.484413     -0.494289
Ti      13.15447      1.77692      6.27440        -1.496060      0.342805     -0.444935
Ti      13.12591     13.08726      6.28574        -0.975200      0.066376     -1.032699
Ti       1.92492      1.79555     10.29380         0.259746      0.646023      0.553765
Ti       1.92528     13.08741     10.34487        -1.147514      0.118058      0.681987
Ti      13.17488      1.83018     10.34437        -1.213262      0.987004      0.269246
Ti      13.16081     13.16641     10.39103         0.104786     -1.741781      0.222356
Ti       1.89767      5.64798      2.13204        -0.498485      0.266813      1.408721
Ti       1.85346      5.61362     14.43376        -0.210446     -0.670334      0.739921
Ti      13.20867      5.59372      2.12153        -1.326835      1.206253      0.780011
Ti      13.06506      5.66728     14.48658         0.563762     -1.388493      0.516696
Ti       1.81439      5.66600      6.27826         0.554575     -0.715150     -0.391897
Ti      13.09262      5.55546      6.21603        -0.040837      0.457883     -0.053982
Ti       1.87895      5.53357     10.24762        -0.363332      1.147342      0.475638
Ti      13.16212      5.66885     10.26507        -0.684710      0.275232      0.240171
Ti       1.98430      9.36640      2.20324        -1.180651      0.420149     -0.284738
Ti       1.85482      9.39740     14.49426         0.086324     -0.076560      1.134658
Ti      13.23654      9.37820      2.09373        -0.708161     -0.029564      0.640235
Ti      13.12927      9.43517     14.45613        -0.573078     -1.346036     -0.517943
Ti       1.84518      9.32319      6.23799         0.401673      0.750676     -0.353543
Ti      13.11881      9.32189      6.17239         0.191719      0.050820      0.486910
Ti       1.84813      9.36928     10.36266        -0.002250     -0.692958      0.500171
Ti      13.08415      9.43757     10.22502         0.211243     -0.310132      3.068960
Ti       5.62742      1.84687      2.12744        -0.458570      0.318834     -0.008790
Ti       5.57666      1.81228     14.45678        -0.046459     -0.747233      1.757707
Ti       5.75410     13.16877      2.10838        -2.019066     -1.137233     -0.958575
Ti       5.62453     13.11001     14.44867        -0.112466      1.293521     -0.161749
Ti       5.67298      1.87033      6.23561        -0.128503      0.279058      1.423097
Ti       5.59546     13.13953      6.21950        -0.473863     -0.547117     -0.441566
Ti       5.66376      1.93657     10.25907        -0.485185      0.001689      1.207433
Ti       5.64657     13.15034     10.42641         0.221955     -0.276803     -0.317556
Ti       5.60025      5.63346      2.26555        -0.331446     -0.725960     -1.497440
Ti       5.61914      5.53490     14.51282        -0.387119      1.116176     -0.743111
Ti       5.57093      5.67068      6.31043         0.516702     -1.149086      0.100969
Ti       5.59794      5.70721     10.35351         1.418952     -1.818929      0.209351
Ti       5.72170      9.33791      2.03880        -0.895081      0.328635      1.282463
Ti       5.55685      9.38172     14.41369         0.905750     -0.412445      0.647809
Ti       5.58879      9.36090      6.25766        -0.653623      1.496359      0.155815
Ti       5.54808      9.41828     10.38928         0.521990     -0.665749      0.746937
Ti       9.33971      1.85217      2.26766         1.230889      0.209819     -1.582718
Ti       9.33697      1.85680     14.52447        -0.022176     -0.035625     -0.793133
Ti       9.28660     13.03445      2.13188         1.560930      1.102265      1.289845
Ti       9.33505     13.11957     14.44443         0.423511      0.271138      0.543720
Ti       9.39067      1.78376      6.24594        -0.524254      0.915570     -0.227372
Ti       9.27323     13.10702      6.23663         0.765172     -1.190270      0.966737
Ti       9.36434      1.87652     10.43655         1.409269     -0.823235     -0.717507
Ti       9.36693     13.06867     10.41000        -0.203495      1.189497      0.140899
Ti       9.33256      5.58012      2.26399         0.995343      0.396244     -0.752681
Ti       9.27864      5.59425     14.37082         1.010288      0.489700      1.319763
Ti       9.41949      5.58825      6.27694        -0.488710     -0.704403     -0.759934
Ti       9.40373      5.63404     10.35270        -1.178324      0.682908      1.499228
Ti       9.42341      9.34938      2.22441         0.132198     -0.158756     -0.815897
Ti       9.35277      9.35030     14.44134        -0.404564     -0.035314      0.808229
Ti       9.38652      9.33770      6.16900         0.250158      0.603993      0.588199
Ti       9.34347      9.42360     10.25052        -0.086463     -1.442424      1.244183
O       1.65709      1.80070      0.36348         0.778553      0.501905      0.563519
O       1.79847      1.90445     12.71175         0.260950     -0.079078     -1.681907
O       1.99292     13.12538      0.44111        -0.362998     -0.041799     -0.826453
O       1.86406     13.13578     12.69497         0.013887      0.000252     -0.749455
O      13.08897      1.88622      0.39176         0.207799     -0.093815     -0.804437
O      13.23947      1.96454     12.54097        -0.149192     -0.149464      0.073891
O      12.92022     13.12314      0.43840         0.286857     -0.099393     -0.897857
O      13.18257     13.19022     12.75093         0.089729     -0.333108     -0.720970
O       1.83457      1.84958      4.48510         0.118483      0.185613     -0.791154
O       1.78581     13.07559      4.36584         0.647339      0.246148      1.171646
O      13.00521      1.81130      4.52883         0.508912      0.077672     -1.049831
O      13.01893     13.09728      4.51523         0.552089      0.214851     -0.493165
O       2.01777      1.78100      8.48186        -0.677708     -0.014500      0.295419
O       1.76892     13.21287      8.60003        -0.056497     -0.187957     -1.433319
O      12.99237      1.80353      8.52089         0.392414      0.142247      0.364227
O      13.21134     13.12927      8.62808        -0.150709     -0.047476     -1.199232
O       1.82466      5.59675      0.39121         0.344220      0.111601     -1.028530
O       1.95915      5.46837     12.70522        -0.446411      0.293914     -1.837078
O      13.26636      5.62541      0.33404        -0.535642     -0.010941     -0.323512
O      13.09693      5.56957     12.74129        -0.097107      0.147327     -1.613920
O       1.77362      5.69067      4.49319         0.277823     -0.391461      0.099217
O      13.23885      5.60500      4.44447        -0.362141     -0.159194     -0.301829
O       1.93153      5.69229      8.44647        -0.379303     -0.533274      0.769055
O      13.08209      5.70700      8.47601         0.052150     -0.534142      0.365295
O       1.83500      9.40154      0.39797         0.089439     -0.235038      0.005405
O       1.83526      9.43794     12.76969        -0.084514     -0.305835     -1.755814
O      13.07519      9.30843      0.30881         0.546219      0.406182     -0.250990
O      13.06843      9.48107     12.60927         0.253234     -0.731677      1.294150
O       1.80834      9.33946      4.44603         0.725968      0.061743      0.448109
O      13.15603      9.41581      4.45180        -0.020597     -0.221794     -1.326145
O       2.01797      9.37005      8.63127        -0.481339     -0.053089     -1.262337
O      13.03919      9.41250      8.51870         0.212738     -0.085283     -1.885806
O       5.58291      1.85277      0.34534         0.371547      0.244608      0.183497
O       5.66794      1.85648     12.74184        -0.189266      0.110213     -2.195729
O       5.62610     13.04272      0.27054         0.322060      0.443863      0.727492
O       5.61674     13.18012     12.63729        -0.111701     -0.229663      0.101448
O       5.59708      1.93731      4.53244         0.194093     -0.454766     -1.910401
O       5.71952     13.14250      4.40615        -0.646297     -0.398816      0.570392
O       5.55685      1.81673      8.49700        -0.003961      0.277212     -0.253481
O       5.66445     13.08949      8.60414         0.127399      0.078812     -0.203273
O       5.55419      5.66179      0.43963        -0.035847     -0.614910     -0.429908
O       5.66519      5.65354     12.71016        -0.521677     -0.349409     -0.248819
O       5.65853      5.56093      4.56772        -0.396417      0.593959     -1.509897
O       5.74530      5.59238      8.53412        -0.520655      0.408873      0.000733
O       5.75017      9.43646      0.29971        -0.632195     -0.524254     -1.211902
O       5.66105      9.19581     12.64694        -0.452003      1.080953     -0.456224
O       5.65724      9.42993      4.50830        -0.727918     -0.440776     -1.147835
O       5.46605      9.47846      8.65786         0.001501     -0.335237     -2.295096
O       9.36256      1.89426      0.36462        -0.251047      0.087501      0.390955
O       9.25973      1.76120     12.68767         0.241676      0.682926      0.542626
O       9.27836     13.01493      0.38674         0.410815      0.110461     -1.155425
O       9.38189     13.22966     12.72277        -0.281606     -0.473371     -1.307897
O       9.29338      1.91800      4.44333         0.374110     -0.525094     -0.161384
O       9.17837     12.97608      4.53106         0.505188      0.495485     -1.654776
O       9.55017      1.82073      8.63209        -0.148578      0.215449     -0.642224
O       9.19496     13.10881      8.65203         0.274829     -0.269320     -1.103872
O       9.30728      5.60149      0.49574        -0.154511      0.097652     -0.647888
O       9.35834      5.61705     12.62254         0.128778     -0.092882     -0.556243
O       9.43963      5.66428      4.47728        -0.444276     -0.275773     -0.013010
O       9.34962      5.58931      8.62631        -0.014149      0.021142     -2.730695
O       9.28165      9.35796      0.45167         0.173383      0.047991     -0.672166
O       9.30592      9.44837     12.69077         0.238993     -0.411901     -0.944305
O       9.51012      9.25829      4.36631        -0.705697      0.616836      0.903016
O       9.44219      9.24250      8.53908        -0.194220      0.616239     -1.951003
O       3.77178      1.74447      2.37792        -0.942028      0.645916      0.373953
O       3.70800      1.90251     14.84125        -0.201348      0.906827     -0.310134
O       3.85594     13.11686      2.47667        -0.364956     -0.014532      0.083763
O       3.75592     13.00941     14.75810        -1.347482     -0.218771     -0.159042
O      14.96975      1.84216      2.54986         0.449588     -0.119945     -0.076130
O      14.96947      1.75725     14.70167        -0.397295     -0.168847      0.021795
O      14.97617     13.08460      2.41856         0.193346      0.482538     -0.022460
O      14.94059     13.19591     14.95811         1.465777     -0.327515     -0.712679
O       3.73482      1.65044      6.51910         0.524658      0.111968     -0.113890
O       3.68049     13.29985      6.62965         0.065063      0.126730     -0.651514
O      14.96974      2.12495      6.45223         0.264241     -0.830235      0.262665
O      14.97019     12.90606      6.50568         0.273727      0.104567      0.189460
O       3.79232      1.79806     10.80958        -0.758439      0.378747     -0.912255
O       3.77504     13.11895     10.63438        -0.060211      0.052251      0.237556
O       0.05715      1.78592     10.54665        -0.833487     -0.400747     -0.073954
O       0.01899     13.03855     10.73245        -0.336945      0.714933     -0.053463
O       3.71402      5.52371      2.64981        -0.052463      0.613849     -0.740268
O       3.70452      5.37320     14.66510         0.619125      0.416817      0.741722
O       0.01048      5.70499      2.53386         0.649957     -0.850558     -0.520538
O       0.02140      5.68036     14.71857        -1.185079      0.298448      0.077775
O       3.72016      5.89368      6.52972        -0.120862     -0.611488     -0.051432
O      14.95475      5.44126      6.57556         0.401256     -0.106441      0.087507
O       3.74067      5.50827     10.50877        -0.537728      0.449482      0.517543
O      14.99176      5.76637     10.53563        -0.143916     -0.339914      0.454981
O       3.81915      9.40411      2.48997         0.280516      0.144865     -0.058078
O       3.68293      9.55631     14.85581         0.896068     -0.504877     -0.346504
O       0.09235      9.52382      2.56822        -0.952819     -0.725282     -0.950207
O      14.99218      9.23191     14.80785        -0.594980      0.231195     -0.358673
O       3.68138      9.12530      6.53248         0.606460      0.037115     -0.030719
O      14.96629      9.44745      6.56826         0.436029      0.288395      0.359228
O       3.66304      9.29442     10.79962         0.892374      0.403623      0.228006
O      14.98461      9.39040     10.63605        -0.410511     -0.054045      0.142447
O       7.49500      1.84480      2.46663        -0.518909      0.200034     -0.066553
O       7.41912      1.71078     14.79697         0.869260      0.054531      0.169277
O       7.50627     13.19886      2.59337         0.243326     -0.409622     -0.674867
O       7.49658     13.22515     14.75809        -0.396000     -0.008310     -0.138752
O       7.54904      2.05738      6.60748        -0.623362     -0.194813     -0.061302
O       7.39128     12.89971      6.57716         0.776606     -0.259462      0.321547
O       7.52900      1.86872     10.57612        -1.698914      0.177748      0.226802
O       7.52259     13.12182     10.82530        -0.667200     -0.371220     -0.283464
O       7.41737      5.66838      2.56219         1.001617     -0.151502      0.073308
O       7.46118      5.68662     14.81987        -0.384654     -0.038583     -0.081360
O       7.49787      5.34283      6.48433         0.655149      0.927572      0.309005
O       7.47762      5.58143     10.72960        -0.606215      0.105633     -0.264471
O       7.45643      9.22836      2.52359         1.018515     -0.018673      0.164847
O       7.46842      9.24251     14.75284        -0.724841      0.394293     -0.214062
O       7.48728      9.46885      6.34452         0.424647      0.279100      1.044281
O       7.43083      9.22267     10.44799        -0.271757      1.052231      0.632184
O      11.24830      1.84203      2.48045        -0.349794      0.307840      0.130479
O      11.21952      2.06026     14.77566         0.450863     -0.719295     -0.685712
O      11.18534     13.05094      2.59781        -0.945055      0.099044     -0.677434
O      11.24264     13.03936     14.70227        -0.018445      0.213291      0.432953
O      11.22346      1.50898      6.44903         0.182393      0.452131      0.206893
O      11.21483     13.28026      6.50003        -0.279303     -0.461835      0.405934
O      11.24188      1.75258     10.88059         1.121807      1.186467     -0.894644
O      11.23528     13.09989     10.77791         0.483450     -0.216822     -0.550096
O      11.29083      5.65283      2.53217         0.024532     -0.203202     -0.545824
O      11.16198      5.46030     14.83990         0.334833      0.525229     -0.541398
O      11.26115      5.81345      6.49200        -0.452959     -0.213492      0.308526
O      11.21004      5.56455     10.65379         1.323180      0.002696      0.233137
O      11.33839      9.40560      2.41264        -1.068634     -0.061833     -0.026190
O      11.22221      9.32103     14.76178         0.331900      0.417816     -0.191352
O      11.27509      9.26801      6.50967        -1.085586     -0.331809      0.116944
O      11.24335      9.49145     10.64003        -0.757114     -0.365419      0.142548
O       1.82640      3.72589      2.50176        -0.220527      0.229514     -0.491765
O       1.67794      3.71455     14.82744         0.568407      0.067913      0.078143
O       1.91802      0.00519      2.51527        -0.425876     -0.268798      0.107234
O       2.05618      0.01587     14.86176        -1.271589     -1.371493     -0.803974
O      13.14360      3.73925      2.46876         0.207822      0.272063      0.059207
O      13.16873      3.72812     14.76692         0.398527     -0.025513     -0.084601
O      13.02127      0.00237      2.52019         0.341088     -0.485679     -0.109406
O      13.11491      0.01778     14.74978        -0.742523      0.367993     -0.079022
O       1.96552      3.71378      6.56979         0.319276      1.276582      0.025573
O       1.54849     14.97592      6.36732         0.165402      0.198164      0.724530
O      12.82903      3.71292      6.45868         0.315631     -0.681268      0.576616
O      13.27131     14.94459      6.60399         0.557651      0.241334      0.062057
O       1.74654      3.71107     10.54555         0.341286     -0.558717      0.057756
O       1.88896     14.94902     10.69241        -0.116186      0.886172      0.003687
O      13.31183      3.77208     10.50487        -0.943920     -0.706422      0.211404
O      13.10236     14.97419     10.75033         0.447794      0.931239     -0.340113
O       1.89277      7.49478      2.51155         0.289360      0.097684     -0.393272
O       1.96917      7.50234     14.74587         0.046353     -0.457554     -0.192661
O      13.22596      7.51183      2.40742        -0.120483      0.167064      0.019841
O      13.04245      7.49205     14.76672         0.102747      0.110048     -0.414982
O       1.65263      7.47304      6.65757         0.363057      0.490346     -0.887534
O      13.24769      7.44690      6.52244        -0.010967      0.524864     -0.091278
O       1.78112      7.45485     10.75084         0.754436      0.052032     -0.088337
O      12.94862      7.56359     10.67783         0.538275     -0.638899     -0.080996
O       1.92637     11.28406      2.48517         0.306120     -0.664970     -0.054160
O       1.70104     11.22895     14.82552         0.155660      1.351732     -0.279183
O      13.10434     11.25507      2.53061         0.034968     -0.177393     -0.357181
O      13.16623     11.21497     14.73449         0.009900      0.943551      0.355966
O       1.94796     11.22137      6.56093         0.150815      0.051722      0.048289
O      12.91165     11.19967      6.53193         0.855236      0.704621      0.093823
O       1.90179     11.27241     10.75668         0.016705     -0.943968     -0.216931
O      13.13843     11.28233     10.72204        -0.162639     -0.027351     -0.302240
O       5.61832      3.68055      2.59348        -0.141588      0.571097     -0.691962
O       5.65355      3.71646     14.74829         0.207066     -0.477393      0.276041
O       5.69855     14.97674      2.53358        -0.348101      0.908481     -0.327437
O       5.35189     14.97900     14.81433         0.988399     -0.311786     -0.582890
O       5.46530      3.78288      6.58072        -0.129327     -0.829911      0.065139
O       5.91831     14.97310      6.45738        -1.005627      0.650640      0.067066
O       5.51756      3.74894     10.72289         0.658583     -0.384471     -0.334968
O       5.69202      0.00944     10.64141        -0.423362      0.459301     -0.203520
O       5.47187      7.46065      2.36644         0.192802      0.752516      0.598268
O       5.33276      7.49612     14.64909         0.486636     -0.335659      0.508487
O       5.78999      7.54311      6.54074        -0.283558     -0.910610      0.080338
O       5.49654      7.49375     10.67861         0.052758     -0.214963     -0.164358
O       5.79963     11.25359      2.26647        -0.389480     -0.243145      0.734363
O       5.55981     11.25447     14.62708         0.991839     -0.482218      0.044556
O       5.32541     11.27177      6.51169         0.419831     -0.638776      0.111235
O       5.63454     11.25080     10.67506        -0.114504     -0.013634      0.607134
O       9.35037      3.71259      2.40841        -0.107687      0.682314      0.552618
O       9.16036      3.73335     14.69719        -0.014635      0.041074      0.135628
O       9.30234     14.96720      2.38535         0.402624     -0.345633      0.254392
O       9.48925      0.01030     14.89254        -0.337532     -0.672179     -0.330828
O       9.61263      3.66918      6.47536         0.188978      0.631957      0.559006
O       9.14207     14.89912      6.50848        -0.172260      1.536397      0.322922
O       9.28331      3.74495     10.65637         0.647094     -0.126907      0.404100
O       9.32386     14.98303     10.65990         0.220395     -0.205462      0.211775
O       9.35522      7.51666      2.57179         0.079773     -0.839895     -0.389226
O       9.35119      7.46121     14.74248         0.390318     -0.186357      0.048169
O       9.26949      7.47552      6.51820        -0.364936      0.056514      0.055192
O       9.19520      7.57144     10.65115         1.706884     -1.398124      0.341755
O       9.17191     11.23263      2.53753         0.552402     -0.714189     -0.368319
O       9.30326     11.23757     14.71394        -0.040519      0.205814      0.163620
O       9.45360     11.21727      6.59171         0.071320     -0.565319      0.044731
O       9.31221     11.22045     10.69935        -0.379611      0.393389      0.246045
