  # total energy = -7878.81594173 
CRSYTAL
PRIMVEC
    15.3600000000000000    0.0000000000000000    0.0000000000000000
     0.0000000000000000   15.3600000000000000    0.0000000000000000
     0.0000000000000000    0.0000000000000000    17.440000000000000
PRESSURE
0.766796 0.326294 -5.95895 0.049489 0.132634 -0.058508
PRIMCOORD
320 1
Pb       3.80360      3.83612      4.43413        -0.027882     -0.460085     -0.444963
Pb       3.95393      3.74652     17.37158        -0.163477      0.391149      0.234144
Pb       3.78198     15.29935      4.40068        -0.022720      0.696070     -0.308737
Pb       3.86668      0.01381     17.38835         0.011358     -0.289179      0.085224
Pb       0.00648      3.80399      4.45261         0.260272     -0.114313     -0.763322
Pb       0.16492      3.85986      0.07663        -0.583136      0.175650     -0.074984
Pb       0.06892     15.28486      4.33725        -0.024328     -0.209047     -0.349567
Pb      15.09580     15.26916      0.02693         0.064147      0.154268      0.225496
Pb       3.72469      3.96102      8.60196         0.360828     -0.145003      0.396123
Pb       3.83466     15.35521      8.84164        -0.097989     -0.171906     -0.245029
Pb      15.04633      3.96945      8.64671         0.740002     -0.270674      0.193689
Pb      15.24103      0.17895      8.74055         0.225926     -0.437998     -0.033601
Pb       3.86282      3.74623     12.93190        -0.233925      0.035016      0.079002
Pb       3.71277     15.23058     12.91698         0.371336      0.583900      0.026464
Pb       0.01161      3.65682     13.14566        -0.112653      0.593904     -0.396344
Pb       0.03623     15.35768     12.94249        -0.198518      0.222230     -0.147758
Pb       3.92561      7.66498      4.27542        -0.504172     -0.261005      0.205819
Pb       3.66470      7.60883      0.02701         0.332912      0.036008     -0.090164
Pb       0.22420      7.71881      4.32103        -0.528305      0.386724     -0.152499
Pb      15.26144      7.76450     17.35581         0.449852     -0.329486      0.175800
Pb       3.96289      7.64826      8.74895        -0.664280     -0.269460     -0.929539
Pb      15.34005      7.63611      8.70399         0.386149      0.163764     -0.263246
Pb       3.79762      7.61028     13.06035         0.149851     -0.345676     -0.224136
Pb       0.08210      7.67297     13.15112        -0.617235     -0.224041     -0.139801
Pb       3.61825     11.49761      4.31681         0.700862     -0.064991     -0.039717
Pb       4.01300     11.31975     17.32400        -0.360348      0.358520      0.085269
Pb       0.14643     11.67112      4.19206        -0.833324     -0.310047      0.387661
Pb      15.22739     11.48362     17.30332         0.084411     -0.268673      0.188740
Pb       3.78420     11.59676      8.72791         0.090229     -0.178060      0.290363
Pb      15.32188     11.34803      8.71006        -0.305130      0.158813     -0.105130
Pb       3.95631     11.46941     12.97080        -0.585101      0.128154      0.031465
Pb       0.16222     11.48459     13.17046        -0.405465     -0.212272     -0.711554
Pb       7.71455      3.70348      4.42685        -0.244217     -0.503263     -0.221693
Pb       7.65218      3.88015     17.34085        -0.122275      0.152791      0.204963
Pb       7.70630      0.00777      4.38758         0.413131      0.053801     -0.309054
Pb       7.39594     15.31599     17.34677         0.767106      0.177578      0.356727
Pb       7.65237      3.82037      8.70670         0.105895      0.578794     -0.394087
Pb       7.67003     15.26253      8.58862         0.181632     -0.207179      0.421538
Pb       7.84068      4.00740     13.28077        -0.401088     -0.232153     -0.898182
Pb       7.65173      0.17797     13.03376        -0.103107     -0.265320     -0.744100
Pb       7.57031      7.47631      4.26375         0.305857      0.827013      0.786320
Pb       7.59321      7.65868      0.00204        -0.023125      0.280723     -0.010247
Pb       7.59738      7.87557      8.65193         0.235339     -1.008473     -0.343976
Pb       7.59560      7.61369     12.96502         0.220694      0.160632      0.109457
Pb       7.71566     11.37448      4.39509        -0.389509      0.507053      0.041212
Pb       7.52094     11.64419     17.34481         0.559263     -0.808271      0.194897
Pb       7.68082     11.49375      8.69608         0.528578      0.246727     -0.383934
Pb       7.86322     11.62318     13.05760        -0.226184     -0.001659     -0.341397
Pb      11.55985      3.75497      4.36859        -0.372718     -0.379262     -0.211565
Pb      11.58999      3.80884      0.08005        -0.251974      0.173029     -0.459160
Pb      11.59111     15.30764      4.29721        -0.797405      0.127753     -0.331199
Pb      11.36646     15.25994     17.29316         0.545449      0.140611      0.380092
Pb      11.54230      4.07451      8.70939        -0.587328     -0.342850     -0.524986
Pb      11.45374     15.28551      8.65106         0.099149      0.011076      0.153163
Pb      11.55975      3.68217     13.32148         0.342772      0.318805     -0.216754
Pb      11.44579     15.33544     13.06009        -0.135116     -0.495557     -0.130525
Pb      11.55923      7.68423      4.20773         0.116986      0.422980      0.119328
Pb      11.42531      7.58373      0.04397         0.148494     -0.000089     -0.277982
Pb      11.55765      7.69244      8.67462        -0.275556      0.100543     -0.412345
Pb      11.38410      7.68819     13.05031         0.513944      0.185546      0.383287
Pb      11.57135     11.37534      4.39467         0.176942      0.015323     -0.274278
Pb      11.33486     11.48471     17.35825         0.124312      0.077282     -0.010282
Pb      11.51801     11.52753      8.86235         0.063978     -0.198039     -0.991775
Pb      11.46249     11.42839     12.98213         0.599256      0.657826      0.150496
Ti       1.84238      1.86824      2.35009         0.511582      0.352807      0.516103
Ti       1.77552      1.80586     15.50165         0.174142      0.616929     -2.183358
Ti       2.02027     13.46032      2.12489        -1.179066     -0.289445      0.743337
Ti       1.91211     13.41296     15.43258         0.466762     -0.810999     -0.957123
Ti      13.34118      1.89432      2.22278         0.428537     -0.519536     -0.748477
Ti      13.39534      1.87124     15.44897        -1.223952      0.141114     -0.403908
Ti      13.33719     13.41791      2.26658         0.495441     -0.430266     -0.837378
Ti      13.44582     13.34341     15.33705        -2.107782      0.425666     -0.823617
Ti       1.82859      1.91371      6.76407         0.313291     -0.203622     -1.553544
Ti       1.88595     13.45505      6.82328        -0.840670      0.484097     -0.999081
Ti      13.28076      1.82072      6.63092         0.751700      0.926345     -0.631609
Ti      13.50022     13.39336      6.69004        -0.000097     -0.849747     -1.018870
Ti       1.84699      1.91261     10.98203        -0.056800     -0.124222     -0.621531
Ti       1.83831     13.35888     10.98306         0.471218      0.354329     -1.448902
Ti      13.24161      1.97592     11.02183         2.470115      0.308417     -1.692917
Ti      13.41653     13.49185     10.99643         0.051625     -1.010991     -1.507132
Ti       1.97035      5.75084      2.31662        -0.453946     -0.705515     -0.306625
Ti       1.96357      5.67995     15.42951        -0.508868      0.564175     -1.257768
Ti      13.46140      5.72969      2.35997         0.755448      0.558358     -0.691615
Ti      13.44519      5.72944     15.53826        -0.033655     -0.503556     -1.994760
Ti       1.88541      5.74673      6.69256         0.520566      1.263293     -0.101346
Ti      13.40824      5.75590      6.47800         0.212492      0.375492     -0.891021
Ti       1.82400      5.68180     11.07274        -0.160876     -0.504001     -1.378150
Ti      13.31848      5.81942     11.16736         1.660345     -0.258209     -0.592267
Ti       1.89222      9.60377      2.16333         0.042959     -0.136051     -0.479144
Ti       2.01259      9.59209     15.36163        -0.942569     -0.421096     -0.312465
Ti      13.41745      9.64284      2.24184         0.150397     -0.507425      0.423680
Ti      13.38715      9.57622     15.33099         0.102825      0.002131     -1.451747
Ti       1.90666      9.60951      6.75179        -0.209139     -1.667892     -1.523916
Ti      13.41627      9.50897      6.68907         0.163724      0.556800     -1.604274
Ti       1.92821      9.49293     11.08165        -0.783963      0.647009     -1.939079
Ti      13.43389      9.61906     11.10369         0.557221     -0.117999     -1.006702
Ti       5.69283      1.96499      2.33753        -0.446080      0.010139     -0.737779
Ti       5.63744      1.96518     15.27336         0.490124     -0.153566     -1.398758
Ti       5.75983     13.50199      2.37628         0.029685     -0.013879     -1.200303
Ti       5.69203     13.45325     15.27043         0.464808      0.180723     -1.002157
Ti       5.71037      1.83674      6.77819         0.715874      0.366113     -1.711010
Ti       5.75707     13.36630      6.74666         1.087102     -0.243911     -0.776097
Ti       5.77421      1.92065     10.95625        -0.000472     -0.262007     -0.181961
Ti       5.81760     13.41605     11.06510         0.260813      0.919367     -1.201031
Ti       5.78511      5.73552      2.37773        -0.957917     -1.197066     -1.575795
Ti       5.76998      5.82540     15.31111        -0.148117     -0.799622     -0.924920
Ti       5.78266      5.66277      6.62177        -0.518744      0.959531     -0.096737
Ti       5.67435      5.72292     10.96398         0.721599     -0.165241     -0.576469
Ti       5.70874      9.68709      2.32726         0.709662     -0.423226     -2.074292
Ti       5.79321      9.50806     15.32566         0.752808      0.374847     -0.413843
Ti       5.62213      9.66499      6.70992         1.731660     -0.883381     -1.261013
Ti       5.77879      9.59505     11.03499        -0.265433     -0.659296     -0.265040
Ti       9.47470      1.88469      2.04400         0.503594     -1.023165      1.276597
Ti       9.43845      1.88462     15.40291         1.553912      0.052551     -0.168105
Ti       9.55773     13.35446      2.29409        -0.239668      0.993610      0.473705
Ti       9.54039     13.44755     15.31105         0.995789     -0.199942     -1.295186
Ti       9.56689      1.92307      6.79429         0.052860      0.278889     -1.873561
Ti       9.72223     13.38193      6.62537        -1.385186     -0.057452     -0.284581
Ti       9.56125      2.00532     10.90366        -0.417791     -0.998393      0.372640
Ti       9.64568     13.48356     10.89597        -0.175349      0.121695      0.210537
Ti       9.60957      5.63747      2.45978         0.388243      0.050755     -2.171703
Ti       9.61398      5.75082     15.40007         0.483726      0.793126      0.242379
Ti       9.56939      5.83557      6.59677        -0.499602     -0.728222      0.470075
Ti       9.62618      5.71139     11.07934        -0.952340      0.207455     -2.441384
Ti       9.48903      9.53850      2.30146         0.696992      1.040490     -0.778647
Ti       9.59463      9.55057     15.40309        -0.749507      0.107585     -0.338837
Ti       9.56575      9.53852      6.63474         0.267200      0.744285      0.116988
Ti       9.50879      9.58800     11.05961         0.982420      0.462612     -1.322878
O       1.84009      1.92841      0.58157         0.320794     -0.048818     -0.986808
O       1.68425      1.90107     13.59816         0.270330     -0.455099      2.141879
O       1.99340     13.45795      0.38680         0.153565     -0.150133     -0.898512
O       1.94471     13.37300     13.59761        -0.108972      0.216532      0.944492
O      13.39339      1.75290      0.37534        -0.029803      0.331119      1.531269
O      13.44849      1.97393     13.60215        -0.284751     -0.075761      0.126198
O      13.34714     13.47415      0.42328         0.320600     -0.533176      0.778532
O      13.19650     13.27973     13.55721         0.874133      0.353265      0.712919
O       1.82622      1.80539      4.89278         0.246691      0.083322      1.419086
O       1.72705     13.57821      4.95707         0.895905     -0.492350      1.407882
O      13.18206      1.90846      4.80860         0.441747      0.072535      0.566973
O      13.53438     13.37868      4.82503        -0.239636      0.058681      1.153252
O       1.80557      1.92358      9.19458         0.278545     -0.063580     -0.231081
O       1.92011     13.49858      9.16144        -0.099287     -0.389838      0.272986
O      13.40016      2.03099      9.12057        -0.148518     -0.365485      1.496686
O      13.38080     13.50557      9.09500         0.124129     -0.162346      1.925750
O       2.04272      5.76612      0.50401        -0.246388     -0.551341      0.445107
O       1.93787      5.70069     13.60508         0.063334      0.017683      1.299641
O      13.41922      5.70749      0.52594        -0.216808     -0.000789      0.367883
O      13.33968      5.69759     13.65628         0.074234     -0.107281      1.659258
O       1.97764      5.85245      4.88677        -0.231005      0.007850      0.085466
O      13.54344      5.64980      4.67604        -0.569051      0.334600      0.458858
O       1.86490      5.65032      9.13980        -0.009951      0.210466      2.200681
O      13.38502      5.79460      9.26277        -0.255313      0.021363      1.513214
O       1.91250      9.52241      0.34769         0.147751      0.653492      0.663543
O       1.91798      9.61503     13.54354         0.477262     -0.180867      0.165376
O      13.36204      9.67673      0.45402         0.368174      0.089700      0.244206
O      13.45380      9.69724     13.46783        -0.250163     -0.261511      1.728279
O       1.90841      9.46494      4.87045         0.626980      0.250010      0.926058
O      13.44336      9.54432      4.83560        -0.176521      0.027992      1.363154
O       1.80528      9.51002      9.19704         0.377013     -0.000189      1.876887
O      13.53756      9.54943      9.16620        -0.172853     -0.390076      1.589362
O       5.62690      2.01321      0.43466         0.153059     -0.343516      1.177839
O       5.74857      1.93072     13.42289         0.045277      0.261676      1.795068
O       5.75160     13.61068      0.45986        -0.101435     -0.473598      1.517089
O       5.67733     13.58960     13.45543         0.057712     -0.788619      0.729990
O       5.71174      1.87790      4.88956         0.299874     -0.054737      1.512147
O       5.76919     13.27891      4.96144        -0.243666      0.286038      0.065538
O       5.90404      1.81218      9.14979        -0.493697      0.072636      0.868408
O       5.81793     13.49772      9.21503        -0.300237     -0.356547      1.721254
O       5.89566      5.65339      0.54993        -0.524996      0.049523      0.564152
O       5.79112      5.80303     13.42104         0.091438     -0.105953      2.089228
O       5.71634      5.67093      4.78102         0.132869      0.237806      0.662327
O       5.78885      5.78883      9.11328        -0.375014      0.001537      1.711915
O       5.78787      9.63984      0.37650        -0.169000      0.053707      2.330489
O       5.81433      9.45092     13.49482        -0.395151      0.191707      1.149067
O       5.70912      9.88391      4.88981        -0.525621     -0.714852      0.659826
O       5.76547      9.52473      9.22029         0.057506      0.108228      0.856617
O       9.51383      2.07589      0.25243         0.036138     -0.376271      0.809235
O       9.58742      1.76800     13.54835        -0.330907      0.523597      0.914595
O       9.49956     13.33134      0.52584         0.120589     -0.153097     -0.440903
O       9.70366     13.50199     13.42853        -0.724862     -0.028598      2.206434
O       9.60150      1.85517      4.93883        -0.151547     -0.007925      1.246008
O       9.57949     13.67968      4.81902         0.293628     -0.810670      0.985550
O       9.64102      2.07998      9.15359        -0.136730     -0.140673     -0.391722
O       9.70464     13.24639      9.10358         0.079094      0.546525      0.594093
O       9.74346      5.51609      0.56923        -0.590788      0.597060      1.628737
O       9.59764      5.88724     13.60155         0.051106     -0.555714      0.018440
O       9.54777      5.93579      4.80778        -0.059627     -0.458717     -0.300176
O       9.52904      5.70198      9.21045         0.684624      0.070868      1.666713
O       9.49531      9.77896      0.48741         0.220446     -0.718970      0.958061
O       9.63896      9.49336     13.60481        -0.441466      0.460865      0.003295
O       9.65243      9.52125      4.86541        -0.182772      0.038322     -0.465458
O       9.47351      9.65890      9.23966         0.332796     -0.277028      1.190773
O       3.75303      1.96051      2.80895         0.447489     -0.388767     -0.362198
O       3.76300      1.90295     15.68635        -0.110227      0.071384      0.125477
O       3.85185     13.44843      2.78675         0.036058     -0.430836     -0.119892
O       3.94280     13.46915     15.78326        -1.353469      0.080836     -0.162626
O      15.30017      1.79958      2.65379        -0.632623      0.300246      0.079495
O      15.23633      1.89483     15.87995         1.690944     -0.239827     -0.136930
O       0.16083     13.40196      2.53449        -1.562608      0.144674      0.110787
O      15.29758     13.30140     15.66155         0.815888     -0.039644      0.108090
O       3.94291      1.81280      7.13096        -1.904379     -0.399039      0.167853
O       3.88412     13.42614      7.17700        -1.316111      0.040327     -0.330210
O      15.34829      2.01338      6.93549        -1.025659     -0.104182      0.413473
O      15.32205     13.39957      7.10474         0.274010      0.139739      0.150173
O       3.80536      1.84003     11.37675        -0.104564      0.363383     -0.290385
O       3.72067     13.47419     11.32496         1.601727     -0.278958      0.346381
O      15.33742      1.89707     11.30484        -1.290221     -0.188362      0.576496
O       0.02156     13.42487     11.39383        -1.493282     -0.142276      0.292505
O       3.81033      5.63891      2.76567         0.436001      0.490728     -0.086806
O       3.85051      5.76505     15.72403         0.505956      0.138739      0.033913
O       0.02108      5.77875      2.65227         0.090448     -0.260526      0.015086
O       0.06918      5.71644     15.86788        -1.251976      0.215291     -0.030654
O       3.85273      5.82228      7.01183         0.057961     -0.335991      0.393487
O      15.34085      5.67834      6.88843        -0.101126      0.033346      0.276225
O       3.81055      5.71056     11.49650        -0.157024      0.174503     -0.685595
O       0.02324      5.73091     11.52505        -1.040623      0.008460     -0.368984
O       3.87724      9.74843      2.56976        -0.736824     -0.711878      0.365677
O       3.91395      9.49446     15.77458        -0.483626     -0.005117     -0.343979
O       0.11243      9.51862      2.64224        -1.187525      0.339417     -0.321598
O       0.00374      9.63765     15.59798        -0.521430      0.196974      0.565073
O       3.83935      9.64469      7.16011        -0.546371     -0.067501     -0.009066
O       0.08674      9.44718      7.02898        -1.478693      0.246175      0.307955
O       3.84288      9.64177     11.38335         0.053040     -0.606206      0.132849
O       0.07900      9.54234     11.50593        -0.556453      0.167556     -0.107306
O       7.65571      1.87258      2.64999        -0.237503      0.345444     -0.143478
O       7.58839      1.92422     15.74231         0.010419      0.161157     -0.548973
O       7.57494     13.42066      2.72980         0.346345      0.363230      0.040553
O       7.61443     13.40330     15.74693         0.157686      0.594065     -0.470386
O       7.70097      1.90743      7.05535        -0.387758      0.058674      0.202067
O       7.77236     13.28139      7.08173        -0.281405      0.284954     -0.106094
O       7.69693      1.91800     11.33908        -0.376808      0.184120      0.168865
O       7.68881     13.46364     11.38842        -0.497277     -0.359195     -0.012760
O       7.60949      5.71608      2.74458         1.645724     -0.079307      0.067019
O       7.70817      5.72693     15.75249        -0.616147      0.423768     -0.187333
O       7.61962      5.74477      6.95595         0.445710     -0.416765     -0.041434
O       7.80993      5.61633     11.49557        -1.746071      0.712264     -0.037819
O       7.65889      9.48403      2.76412        -0.235336      0.248605     -0.144225
O       7.62268      9.55183     15.83911         0.445534     -0.215313     -0.522002
O       7.69813      9.58695      7.02609        -0.958633      0.540694      0.124662
O       7.66993      9.64719     11.50547        -0.151185     -0.168957     -0.348106
O      11.43329      1.80882      2.52013         0.323576      0.629830      0.023334
O      11.46536      1.88090     15.64810        -0.221895      0.232438      0.176387
O      11.44597     13.40470      2.62720         0.703267     -0.312750      0.040449
O      11.44385     13.42966     15.70868        -0.568968     -0.291574      0.303706
O      11.51574      1.84833      7.07736        -0.276232      0.433456      0.084893
O      11.59164     13.36405      7.08594        -0.375199      0.175979     -0.318832
O      11.46766      1.90752     11.30678        -0.205751     -0.239777      0.546711
O      11.52103     13.47183     11.35911         0.209645     -0.254953     -0.299900
O      11.52160      5.65389      2.79036        -0.194891      0.317336     -0.214990
O      11.48463      5.69347     15.87850         0.584742      0.332675     -0.020025
O      11.45791      5.88073      6.93841         0.515285     -0.241470      0.160465
O      11.47893      5.79991     11.46258         0.515201      0.089798      0.023169
O      11.53786      9.74148      2.71886        -0.319328     -0.641940     -0.360473
O      11.47356      9.44472     15.66410         0.441306      0.893028      0.371753
O      11.49693      9.54566      6.96114         0.536506     -0.784615      0.578123
O      11.54934      9.52884     11.33329        -0.488658      0.446597      0.022352
O       1.90309      3.79517      2.84720        -0.711017      0.315676     -0.416726
O       1.83238      3.80411     15.83284         0.377125     -0.757381     -0.101355
O       1.87253     15.28347      2.69262         0.796648      0.787313     -0.025978
O       1.89523     15.24413     15.79645        -0.244547      1.404294     -0.125860
O      13.42530      3.79421      2.60596        -0.115057     -0.765683     -0.013034
O      13.34074      3.78918     15.82347         0.441532      0.458390     -0.093900
O      13.36658     15.22906      2.56242         0.376346      1.376316      0.428670
O      13.35328     15.28055     15.74275         0.455910     -0.094588     -0.203338
O       2.01842      3.84878      7.02515        -0.092682     -0.719412     -0.338541
O       1.81080      0.00420      7.12830         0.447531      0.035369      0.167303
O      13.36566      3.96074      6.91708        -0.389330     -1.623315      0.467761
O      13.40670     15.33470      6.87246         0.213069      0.312783      0.407585
O       1.77911      3.76851     11.49818         1.001742      0.514716     -0.182308
O       1.78429     15.33856     11.32621         0.439833      0.117393      0.449937
O      13.36179      3.85799     11.37313        -0.155696     -0.402197      0.209748
O      13.40125     15.29791     11.36693         0.211303      1.462956      0.140837
O       1.98567      7.68673      2.46319         0.590432     -0.230486      0.867154
O       1.86205      7.71147     15.84647         0.416348     -0.731129     -0.518196
O      13.44563      7.73242      2.52499        -0.545407     -0.577597      0.295457
O      13.42549      7.68581     15.85974         0.021576     -0.418875     -0.293730
O       1.96299      7.65862      7.16435        -0.020628     -0.306373     -0.167082
O      13.51433      7.55564      6.97298        -0.349391      1.157615      0.497247
O       1.83863      7.54372     11.56003         0.974864      1.303610     -0.540160
O      13.46769      7.70161     11.59917        -0.023879     -0.770060     -0.628776
O       1.87079     11.49349      2.60781         0.948364      0.299848     -0.156621
O       2.03131     11.45960     15.62593        -0.054770      0.670078      0.602106
O      13.51901     11.52883      2.70968        -0.002353     -0.058915     -0.211629
O      13.27754     11.44397     15.79188         0.485997      0.272188     -0.057673
O       1.78842     11.47762      6.97975         0.869865      0.909665      0.403997
O      13.45482     11.37234      7.08798         0.229767      0.851090     -0.085031
O       1.89474     11.49421     11.27438         0.107430     -0.698084      0.541109
O      13.41716     11.49987     11.33780         0.072877      0.131382     -0.183578
O       5.73439      3.77735      2.75060         0.101579      0.391323      0.108826
O       5.75927      3.90639     15.67074        -0.211392     -0.694469     -0.099815
O       5.62283      0.09887      2.63778         0.348243     -1.718957      0.259643
O       5.79341      0.08475     15.66116        -0.436674     -0.606904      0.023073
O       5.63741      3.80598      7.12227         0.710300     -0.182185     -0.426951
O       5.92630     15.21267      7.07835        -0.575009      1.277793     -0.277389
O       5.64134      3.86808     11.24665         0.378636     -0.742362      0.114419
O       5.72942      0.02619     11.40915         0.037133     -0.527985     -0.253984
O       5.73284      7.60035      2.57699        -0.377145      1.277117      0.547741
O       5.82039      7.61326     15.85969        -0.217345      0.104025     -0.536757
O       5.80187      7.67435      6.90058        -0.521893      0.653512      0.401361
O       5.69439      7.61781     11.35545         0.451136      0.536782     -0.086445
O       5.80965     11.49146      2.66237        -0.034776      0.719307     -0.335254
O       5.73342     11.47463     15.63471        -0.106011      0.469266     -0.248426
O       5.74386     11.48704      7.28243        -0.122474      0.008948     -0.251141
O       5.77583     11.45945     11.40461        -0.186542      1.047709      0.032042
O       9.51934      3.77777      2.78574         0.213149     -0.149319     -0.178688
O       9.52038      3.89797     15.60689         0.115480     -1.411654     -0.360498
O       9.50310     15.35928      2.47134        -0.016391      0.256287      0.073052
O       9.61500     15.33690     15.76416        -1.043711     -0.168614     -0.391214
O       9.56831      3.87459      6.99566         0.324778      0.056941     -0.026060
O       9.61839     15.31870      7.09327         0.159964     -0.183079      0.178985
O       9.62729      3.82754     11.37551         0.380456     -0.104475      0.566498
O       9.56816     15.31495     11.16455         0.253156      1.287424      0.317915
O       9.64664      7.66763      2.58800         0.052375     -0.440420     -0.041320
O       9.67018      7.69015     15.82196        -0.807280     -0.784824      0.445132
O       9.46972      7.65312      7.10594         0.451078      0.258607      0.101129
O       9.60735      7.76714     11.39505        -0.316429     -1.190082     -0.048901
O       9.53039     11.51071      2.74155        -0.147854     -0.536946      0.147742
O       9.48059     11.49903     15.66546         0.397124      0.416272     -0.054329
O       9.64753     11.45688      7.03278         0.247890      0.297003     -0.424881
O       9.61765     11.62814     11.40710        -0.242712     -1.786265      0.241244
