  # total energy = -7881.58485633 
CRSYTAL
PRIMVEC
    15.3600000000000000    0.0000000000000000    0.0000000000000000
     0.0000000000000000   15.3600000000000000    0.0000000000000000
     0.0000000000000000    0.0000000000000000    17.440000000000000
PRESSURE
1.9222 1.64116 1.45741 -0.38982 -0.449425 -0.072982
PRIMCOORD
320 1
Pb       3.86003      3.82775      4.38505         0.159761     -0.205666     -0.388973
Pb       3.91290      3.83028     17.40390        -0.844913     -0.304977      0.427003
Pb       3.80350      0.02425      4.29561        -0.177783      0.031336      0.410141
Pb       3.66847     15.35054     17.36516         0.923224      0.033392      0.653475
Pb       0.03971      3.71780      4.34956         0.247681      0.498623      0.242168
Pb       0.08223      3.98236     17.40401         0.027819     -0.684587      0.085575
Pb       0.07436      0.00840      4.30251        -0.299112     -0.475426      0.330658
Pb      15.24487     15.30782     17.37738        -0.569412      0.547121      0.831676
Pb       3.74883      3.73054      8.73940         0.485569      0.131045      0.116527
Pb       3.88918      0.01662      8.56210         0.096096     -0.328638      0.562023
Pb      15.18785      3.93699      8.62880         0.291930     -0.899443      0.879465
Pb      15.19770      0.00227      8.68142         0.684829     -0.089848      0.471253
Pb       3.71144      3.69704     13.10348         0.409541     -0.004892     -0.753853
Pb       3.71193     15.33289     12.95224         0.611302     -0.123299      0.119344
Pb       0.04368      3.79116     13.05988        -0.604028      0.027033     -0.209787
Pb      15.35847     15.31415     13.06524        -0.200415     -0.169689     -0.418378
Pb       3.86561      7.65190      4.33106        -0.369534     -0.016322     -0.148357
Pb       3.80405      7.56904     17.36105        -0.016706     -0.017231      0.532631
Pb       0.10119      7.83214      4.35792         0.371050     -0.189400     -0.094088
Pb      15.14244      7.68568     17.39004         0.813741      0.033303      0.052427
Pb       3.85819      7.71923      8.64947         0.004877     -0.370280      0.626184
Pb       0.06078      7.59228      8.62434        -0.068298      0.257454      0.312116
Pb       3.80220      7.55993     12.96960         0.151023      0.126193     -0.150934
Pb       0.00474      7.62637     13.11387         0.122027      0.084447     -0.485049
Pb       3.80877     11.59931      4.21532        -0.461532     -0.159116      0.351277
Pb       3.98502     11.60403     17.39660         0.036767     -0.029797      0.333515
Pb       0.02123     11.56427      4.37997        -0.008224     -0.059091     -0.563322
Pb      15.29005     11.59306     17.26948        -0.457879     -0.484155      1.083338
Pb       3.88179     11.54272      8.60449        -0.549547     -0.253044      0.167317
Pb      15.25475     11.42136      8.68678         0.352514     -0.167374     -0.254244
Pb       3.89947     11.47417     13.16070        -0.267557      0.109887     -0.354237
Pb       0.14910     11.59228     13.06172        -0.582196     -0.503729      0.382619
Pb       7.73040      3.74112      4.37622        -0.354758      0.118635     -0.612933
Pb       7.67278      3.89440     17.38664        -0.119821     -0.166861      0.926547
Pb       7.72082      0.03381      4.36595        -0.100350      0.013339      0.178119
Pb       7.58815      0.09120     17.29970         0.191658     -0.626820      0.593609
Pb       7.64369      3.80205      8.77843        -0.198901     -0.263886     -0.417225
Pb       7.65636     15.19780      8.70667        -0.519293      0.886765     -0.325288
Pb       7.85373      3.90378     13.09792        -0.462289     -0.602057     -0.050738
Pb       7.64869      0.13455     13.03821        -0.493781     -0.277574      0.162645
Pb       7.72078      7.52053      4.31235        -0.356034      0.282912     -0.010767
Pb       7.61430      7.78618     17.37602         0.464828     -0.330285      0.767057
Pb       7.67603      7.69734      8.64116         0.082299     -0.854171      0.238715
Pb       7.55995      7.71056     13.01442         0.280989     -0.163014      0.225369
Pb       7.64834     11.54948      4.30379         0.413111     -0.162423      0.592666
Pb       7.76090     11.50584     17.43631        -0.382812      0.362854     -0.246019
Pb       7.47719     11.57608      8.53146         0.777982     -0.217250      0.378470
Pb       7.74382     11.45055     13.02066         0.310996      0.468640      0.835577
Pb      11.43761      3.80508      4.29610        -0.188185     -0.702602      0.364118
Pb      11.75361      3.88670      0.02265        -0.527004     -0.009445      0.220397
Pb      11.49990     15.23474      4.31273        -0.163533      0.647317     -0.010694
Pb      11.34945     15.27794      0.01088         0.684882     -0.073886      0.029736
Pb      11.36403      3.87837      8.69706         0.426123     -0.104033     -0.275905
Pb      11.53736     15.33502      8.71432        -0.254392      0.103694      0.095794
Pb      11.61569      3.71833     13.08862         0.072228      0.479827     -0.366871
Pb      11.59407     15.35630     12.98059        -0.305045     -0.484825     -0.213370
Pb      11.49054      7.64750      4.30698        -0.272710     -0.081938      0.709504
Pb      11.56644      7.65237     17.38040        -0.438420     -0.209813     -0.191361
Pb      11.49139      7.69868      8.71529        -0.246020     -0.496842     -0.017557
Pb      11.37929      7.66388     13.07690         0.350933     -0.072037     -0.671384
Pb      11.60202     11.43667      4.27227        -0.833243      0.480009      0.740697
Pb      11.41702     11.39376     17.35012         0.219625      1.148003      0.588475
Pb      11.65266     11.47834      8.55358        -1.300720     -0.039710      1.548442
Pb      11.54892     11.45093     13.00677        -0.318966      0.225343     -0.206513
Ti       1.87012      1.87248      2.32147         0.492251      0.478173      0.054977
Ti       1.82333      1.84304     15.41937         0.364963      1.110403      1.073903
Ti       1.84114     13.43834      2.18299         0.410421     -0.276905      0.987724
Ti       1.87857     13.42786     15.49164         0.234556     -0.272276     -1.418386
Ti      13.45544      1.98021      2.40554        -1.169260     -1.463305     -0.787229
Ti      13.41141      1.91988     15.40687         0.510535      0.135267      0.659436
Ti      13.38111     13.49245      2.25241         0.260369     -0.695189     -0.119830
Ti      13.33709     13.46136     15.34046        -0.926098      0.352258      1.438632
Ti       1.85979      1.90560      6.79632        -0.003836     -0.463985     -0.679855
Ti       1.77147     13.42894      6.68549         0.349165     -0.501131      0.223055
Ti      13.36394      1.90993      6.67810        -0.125236      0.018634      0.700838
Ti      13.36463     13.43828      6.70074         0.942563     -0.803356      0.009864
Ti       1.82530      1.78911     11.01513         0.149833      0.854739      0.078303
Ti       1.91581     13.29749     10.91374        -0.823302     -0.022508      0.701548
Ti      13.41944      1.84054     11.00070         0.302750      0.566092      0.717267
Ti      13.38967     13.27768     10.98554        -0.111037      0.629078      0.603496
Ti       1.86742      5.72610      2.29105         0.757246      0.143525     -0.847305
Ti       1.93778      5.80058     15.32657        -0.109487     -1.625670      0.948943
Ti      13.46450      5.82140      2.53769         0.665631     -1.669973     -0.530377
Ti      13.47683      5.78592     15.32847        -0.839261     -1.363122     -0.831814
Ti       1.97340      5.71628      6.83132        -0.506364      0.049081      1.027374
Ti      13.42002      5.68206      6.56217        -0.993081      0.079256      0.747834
Ti       1.84793      5.69876     11.03684         0.847902     -0.100649     -0.150177
Ti      13.37855      5.74192     10.99761         0.213607     -1.168042      1.863863
Ti       1.90793      9.61386      2.13097        -0.651250     -0.027094      2.039833
Ti       1.93823      9.61646     15.46663        -0.740076     -0.503951      0.597581
Ti      13.38185      9.59905      2.33057         0.968980      1.071075      0.054211
Ti      13.39825      9.70220     15.32024         0.304745     -0.566418      0.109103
Ti       1.94129      9.57929      6.64328        -0.007905      0.170860      0.865961
Ti      13.43046      9.38851      6.63627         0.532285      2.128357      1.306716
Ti       1.94736      9.48197     11.01315         0.049966      0.409170      1.200023
Ti      13.51730      9.47440     11.11890        -0.497763      0.204891      0.665503
Ti       5.72135      1.86534      2.30731        -0.089230      1.011435      1.550885
Ti       5.72092      1.91234     15.41859        -0.779150      0.075884     -0.272035
Ti       5.79015     13.52660      2.43038        -0.150381     -0.635225     -0.929101
Ti       5.78550     13.46057     15.37866        -0.069592      0.077800     -0.610597
Ti       5.74280      1.89644      6.67435         0.328280      0.133416     -0.073232
Ti       5.60176     13.36443      6.56530         1.516368      1.323323      0.138401
Ti       5.67782      1.94809     10.95181         0.690325     -0.658744     -0.391105
Ti       5.71690     13.38137     11.09109        -0.368845      1.458288     -1.091849
Ti       5.73467      5.73134      2.32706        -0.203598     -0.979824      1.168965
Ti       5.77776      5.73261     15.42075        -0.533248      0.346390      0.608235
Ti       5.70733      5.68387      6.70920         0.987094     -1.238209     -0.434013
Ti       5.78856      5.70459     11.03696        -1.142233     -0.068535     -0.420948
Ti       5.70322      9.55344      2.33909         0.692661      0.449775     -0.346912
Ti       5.67007      9.57072     15.46077         1.972419      0.467998      0.871270
Ti       5.70849      9.47693      6.66220         0.405162     -0.189799      0.129976
Ti       5.81602      9.62681     11.07535        -1.548180     -0.599390     -1.421723
Ti       9.57558      1.86808      2.20082        -0.115664      0.308393      1.126025
Ti       9.64134      1.98631     15.46646        -0.097090     -0.582078      0.564460
Ti       9.59439     13.40586      2.43028        -0.325655     -0.472790      1.305920
Ti       9.59266     13.48648     15.30482        -0.394697     -0.474152      0.593296
Ti       9.56198      1.85367      6.71240        -0.322305      0.814418      0.049912
Ti       9.54841     13.48030      6.74090        -0.679129     -0.964180     -1.710306
Ti       9.57349      1.89968     11.00288        -0.816888     -0.807837     -0.779294
Ti       9.44842     13.48934     11.03728         1.844061     -0.536077     -0.487977
Ti       9.62863      5.75837      2.31545        -1.219125     -1.415969     -0.818499
Ti       9.56947      5.72055     15.52284         0.841762      0.802750      0.326314
Ti       9.51452      5.68646      6.67338         0.052157      0.034149      0.562583
Ti       9.58814      5.67450     11.02096         0.638425      0.625782     -1.900746
Ti       9.56509      9.53016      2.31664        -0.739469      1.055875      1.069031
Ti       9.58467      9.58240     15.42110        -0.645847      0.621866     -0.326921
Ti       9.56228      9.62825      6.78644        -0.050239     -0.207260      1.358683
Ti       9.62882      9.63235     10.99883         0.888476     -0.124047     -0.884210
O       1.81010      1.99038      0.60732         0.079219     -0.329099     -0.791530
O       1.86080      1.67856     13.67646         0.265410      0.366870     -0.893149
O       1.85608     13.37379      0.41512        -0.056961     -0.036286     -0.261511
O       1.77131     13.47775     13.63999         0.637852     -0.384739      1.977313
O      13.46783      2.00930      0.64553        -0.221940      0.372986      0.002595
O      13.49290      1.82791     13.66067        -0.383226      0.018859     -0.579822
O      13.39645     13.51043      0.48998        -0.245734     -0.416382      0.398169
O      13.22837     13.43108     13.60986         0.332861      0.322452     -0.444083
O       1.93274      1.86149      5.00279        -0.500108     -0.109277      0.444352
O       1.86671     13.52849      4.89591        -0.411293     -0.235855      0.814335
O      13.26807      1.81227      4.95669         0.446484      0.069399     -0.707408
O      13.40541     13.43635      4.95704         0.122647     -0.069858     -0.370768
O       1.83273      1.89446      9.28781         0.049814     -0.136901     -0.574833
O       1.77951     13.22377      9.16145         0.591660      0.183996      1.145461
O      13.40934      1.85239      9.26812         0.069601     -0.083398     -0.472965
O      13.40699     13.29387      9.21693         0.245585      0.230572      0.222175
O       1.89130      5.74589      0.45425        -0.096674     -0.152656      1.618768
O       1.83697      5.74163     13.56634         0.478076      0.205640      0.254082
O      13.54021      5.64991      0.74858        -0.479680      0.426176     -0.041776
O      13.42448      5.69931     13.56437        -0.129021      0.214871      0.408660
O       1.82176      5.80384      5.15776         0.350520     -0.273326     -2.094007
O      13.37838      5.73349      4.79658         0.432098     -0.102738      0.376685
O       1.72954      5.68465      9.25452         0.301676      0.137808      0.404963
O      13.39384      5.62445      9.27941         0.064880      0.486464     -0.607814
O       1.79481      9.65033      0.40220         0.262508     -0.333812     -0.104433
O       1.86604      9.69376     13.72814         0.278540     -0.448037      0.365643
O      13.42363      9.61749      0.55216        -0.216644     -0.401957      0.805371
O      13.35632      9.54674     13.57088         0.019876     -0.049719      0.355725
O       1.93651      9.54468      4.91561        -0.205003     -0.156032     -0.518750
O      13.45791      9.62351      4.92523        -0.281208     -0.422409     -0.843239
O       1.97325      9.38743      9.29215        -0.044003      0.400117     -0.826266
O      13.50341      9.54147      9.39754        -0.141191     -0.403336     -0.967860
O       5.63396      1.92940      0.59507         0.391685     -0.315024     -1.338790
O       5.52632      2.07618     13.66041         0.351011     -0.609131      0.494341
O       5.88652     13.44633      0.63821        -0.271551     -0.147725      0.479894
O       5.60202     13.45627     13.62344         0.253612      0.060298     -0.172231
O       5.60861      1.86326      4.86881         0.270670      0.379843      0.841501
O       5.62265     13.49681      4.81329        -0.034188     -0.334611      0.020242
O       5.78648      1.84252      9.14189        -0.499290      0.058618      1.607606
O       5.59604     13.38478      9.22635         0.614025     -0.322015      1.658472
O       5.61909      5.54230      0.61159         0.350778      0.744649     -0.882613
O       5.71464      5.91356     13.70671         0.169673     -0.584110     -0.997723
O       5.64563      5.60254      4.90852         0.282079      0.255361      0.263439
O       5.91105      5.82267      9.31024        -0.335715     -0.208330      0.149141
O       5.79438      9.77039      0.58183        -0.348254     -0.361829      0.114095
O       5.90058      9.49628     13.75029        -0.391479     -0.019722     -1.359353
O       5.68989      9.30634      4.95161         0.236049      0.659619     -1.254270
O       5.66150      9.63542      9.23925         0.501662     -0.104631      1.772464
O       9.56737      1.91900      0.43746        -0.001307     -0.127893     -0.092730
O       9.55630      2.01801     13.71790        -0.195062      0.065953     -0.402949
O       9.59406     13.34407      0.73358        -0.076744     -0.129743     -2.186834
O       9.56987     13.46322     13.59002         0.277924      0.150889     -0.923210
O       9.56235      1.76852      4.94528        -0.132154      0.306517      0.273546
O       9.29758     13.43981      4.92823         1.387145      0.206943      1.338690
O       9.42250      1.89072      9.22869         0.686464     -0.129366      0.502654
O       9.54206     13.49040      9.24273        -0.397896      0.131831      0.778117
O       9.45611      5.80152      0.53588         0.731339     -0.055340      0.780015
O       9.69116      5.58126     13.77323        -0.470373      0.241063     -0.952209
O       9.30277      5.69084      4.90071         0.576167      0.058381     -0.184072
O       9.60701      5.54857      9.19526        -0.161926      0.488378      1.737729
O       9.63312      9.71343      0.60237         0.072908     -0.196315     -1.295100
O       9.53421      9.62661     13.64346         0.171472     -0.659135      0.321067
O       9.47024      9.56186      5.10282         0.231597     -0.239353     -1.536888
O       9.72272      9.68526      9.22039        -0.548158     -0.554540      0.665915
O       3.72417      1.75547      2.72111         0.267460      0.596041     -0.202639
O       3.77577      1.78338     15.96101        -0.111702      0.513514     -0.889860
O       3.75651     13.54680      2.64456        -0.064144     -0.759416     -0.069399
O       3.87293     13.40565     15.78726        -2.032069      0.374956      0.197743
O      15.31361      1.82425      2.81193        -0.141175      0.387852      0.267032
O      15.33921      1.88643     15.85518        -0.586402      0.134254     -0.222879
O      15.33467     13.38484      2.61679        -0.758436     -0.158456      0.248308
O      15.18523     13.43071     15.76734         1.386362     -0.006367     -0.295262
O       3.83285      1.86806      7.13244        -0.984462      0.060985      0.040018
O       3.83452     13.33853      7.07006        -1.393895      0.562658     -0.157165
O      15.28663      1.88779      7.09521         0.040565      0.087161     -0.157531
O      15.28903     13.27992      7.14531        -0.007810      0.406732     -0.437851
O       3.76111      1.89296     11.37152        -0.438019     -0.381180      0.385580
O       3.84729     13.20187     11.46748        -1.187431      0.592470     -0.354013
O      15.33975      1.92802     11.51259        -0.345353     -0.642624     -0.158720
O      15.33324     13.31955     11.53796        -0.150309      0.182651     -0.918096
O       3.80820      5.73280      2.77719        -0.882861     -0.005835     -0.127384
O       3.86626      5.74716     15.86348        -0.548445     -0.071240     -0.556550
O       0.04217      5.65405      2.78163        -0.736564      0.445559      0.235101
O      15.34933      5.74467     15.78743         0.195709      0.071075     -0.242031
O       3.90384      5.63093      7.24964        -1.289316      0.154021     -0.122671
O      15.32146      5.67032      7.15404        -0.412922      0.473213     -0.679178
O       3.79823      5.83263     11.22363        -0.049273     -0.203935      0.806599
O       0.03770      5.84967     11.54673        -1.330447     -0.463322     -0.435369
O       3.73980      9.51075      2.66395         0.676081      0.468502     -0.295239
O       3.87001      9.61567     15.86905        -1.433008     -0.218664     -0.168175
O      15.29756      9.74476      2.77161        -0.216646     -0.928503     -0.416056
O      15.24646      9.60720     15.85094         0.389235     -0.286428     -0.476687
O       3.86900      9.49216      7.01069        -0.617223      0.134878      0.512191
O       0.08106      9.48727      7.02323        -1.470518     -0.225248      0.136806
O       3.85434      9.48926     11.47685         0.707511      0.711407      0.192729
O       0.05108      9.48214     11.49358        -0.988812     -0.086583     -0.021543
O       7.67224      1.82896      2.70078        -0.111044      0.127201     -0.278555
O       7.59226      1.87528     15.79224         0.622835      0.556819     -0.178224
O       7.68268     13.49725      2.89279        -1.168806     -0.510065     -0.549974
O       7.64565     13.42253     15.65329         0.834284      0.232143      0.586813
O       7.65369      1.86908      7.10876         0.357587     -0.030736     -0.493823
O       7.57944     13.46052      6.95717        -0.025867     -0.269920      0.824482
O       7.58628      1.82917     11.43937        -0.243314      0.955163      0.176818
O       7.64283     13.44363     11.50609        -0.847386     -0.262395     -0.338084
O       7.63236      5.68005      2.70138         0.080732      0.335870      0.078865
O       7.63618      5.84984     15.81249         0.334425     -0.391826      0.041066
O       7.59938      5.52787      7.21747         0.482832      1.151551     -0.712194
O       7.68509      5.59555     11.43044         0.300678      0.298538      0.479143
O       7.70024      9.49133      2.57427        -0.973598     -0.069100      0.640619
O       7.65558      9.61205     15.89467         0.472947      0.082995     -0.100644
O       7.61861      9.51991      7.22368         0.276166      0.447101     -0.468102
O       7.68471      9.58592     11.48672        -0.077861     -0.180839     -0.368583
O      11.39088      1.95825      2.75330         0.757400     -0.290622     -0.215537
O      11.50439      1.98381     15.68002        -0.413031      0.119533      0.475130
O      11.46466     13.35784      2.87898         0.320264     -0.110944     -0.382247
O      11.44557     13.38424     15.91324         0.126681      0.773729     -0.422865
O      11.49326      1.90103      7.10118        -0.109790     -0.430925      0.295659
O      11.53078     13.41409      7.06061        -0.994384      0.002383     -0.050552
O      11.44424      1.78483     11.33331         0.637987      0.224505      0.319377
O      11.53347     13.50989     11.38301        -0.675683     -0.141042      0.062870
O      11.52001      5.63933      2.84509        -0.131910      0.696538     -0.651765
O      11.51418      5.77065     15.84309        -0.006620      0.217496      0.357363
O      11.45956      5.70473      6.96670         0.687148      0.242098      0.038236
O      11.48592      5.62357     11.37381        -0.569522     -0.111144      0.373703
O      11.43868      9.49828      2.81967         1.098635      0.128581     -0.203244
O      11.54616      9.61631     15.86673        -0.401909     -0.681969     -0.431686
O      11.55736      9.49686      7.24226        -0.521468     -0.052825     -1.157864
O      11.48831      9.53772     11.54546        -0.439245     -0.109584     -0.127954
O       1.83576      3.83357      2.80087         0.275864     -0.246820     -0.173020
O       1.86494      3.73431     15.76682         0.406015      1.024409     -0.487425
O       1.69168     15.32382      2.65589         0.741068     -0.401792     -0.232252
O       1.72622     15.30080     15.89661         0.930749     -0.728671     -0.331788
O      13.45273      3.72238      2.92174        -0.168865      1.681823     -0.036542
O      13.30894      3.85716     15.79279         0.922739      0.112509     -0.114910
O      13.21160     15.29779      2.59859         0.599540      0.796765      0.638822
O      13.36109      0.11289     16.03132        -0.431794     -1.184233     -1.182211
O       1.89983      3.76145      7.20629         0.041912      0.122461     -0.308759
O       1.77241     15.27363      7.24177         0.493583      0.322881     -0.579794
O      13.32651      3.85328      7.17150         0.388769     -0.480677     -0.958036
O      13.44857     15.29533      7.16091        -0.349856      0.453856     -0.335466
O       1.82603      3.75741     11.56361         0.531148      0.619215     -0.455515
O       1.78849     15.25608     11.36793         0.626743     -0.757514     -0.086044
O      13.45550      3.76385     11.47654        -0.127186      0.193994      0.006247
O      13.43701     15.31662     11.40398         0.312803     -0.269358      0.009442
O       1.80172      7.70423      2.69731        -0.051818     -0.275677     -0.374844
O       1.96440      7.56798     15.83685        -0.371851      1.795168     -0.407632
O      13.41453      7.63310      2.86981         0.129415      1.283770     -0.640837
O      13.41815      7.58991     15.77062        -0.157138      1.622674      0.234628
O       1.96696      7.62186      7.13533         0.000223      0.059221      0.207092
O      13.41068      7.58955      7.08064         0.156948     -0.561718     -0.160849
O       1.90578      7.65969     11.51734        -0.051080     -0.520704      0.059868
O      13.26210      7.56121     11.45511         0.465926      0.681543      0.172664
O       1.88910     11.48674      2.86073         0.161686      0.482977     -1.219527
O       1.85543     11.45085     15.91765         0.282760      1.324657     -0.839662
O      13.28603     11.53346      2.75743         0.474582     -0.928302     -0.490180
O      13.28882     11.58472     15.76414         0.538277     -0.876456     -0.428214
O       1.87082     11.47312      7.03647         0.426474     -0.088897     -0.099835
O      13.40982     11.37009      7.22686         0.737295      0.155920     -1.372512
O       1.80630     11.40905     11.57368         1.070894      0.670214     -1.053766
O      13.31945     11.38125     11.44716         0.569445      1.153201     -0.139260
O       5.67124      3.73750      2.76194        -0.060242      0.411449      0.078368
O       5.71431      3.83903     15.93541         0.267289     -0.233803     -0.925150
O       5.64546      0.01310      2.80470         0.735627     -0.474010     -0.373074
O       5.73766      0.01272     15.85738        -0.194493     -0.147494     -0.206834
O       5.74681      3.77006      7.20934        -0.454469     -0.289376     -0.378001
O       5.72709      0.01024      7.02716        -0.376499     -1.172282      0.114820
O       5.50902      3.78135     11.40977         0.801175      0.790915     -0.040207
O       5.65062     15.35249     11.42200        -0.029994     -0.782540      0.032209
O       5.66318      7.65464      2.68720         0.304606     -0.173477     -0.181324
O       5.79330      7.68038     15.94733        -0.764984     -0.146327     -0.250171
O       5.73606      7.53371      6.97252         0.324015      1.001348      0.769798
O       5.75232      7.62366     11.55669         0.591704      0.779764     -0.407834
O       5.71824     11.49596      2.86155        -0.062630     -0.175718     -0.587646
O       5.69029     11.55664     15.74207         0.228126     -0.630660      0.307392
O       5.67948     11.44022      6.98222         0.314242      0.378332     -0.164995
O       5.80515     11.50922     11.63220        -0.174064     -0.922166     -0.725881
O       9.55679      3.81289      2.71025        -0.253951     -0.027660     -0.043573
O       9.52094      3.91857     15.95981         0.088302     -1.138337     -0.464943
O       9.58972     15.26880      2.69684         0.200991      1.482330      0.003973
O       9.63683      0.01589     15.78183        -0.392119      0.123471      0.001314
O       9.61260      3.83029      7.09255        -0.199129     -1.303522     -0.200852
O       9.62336     15.32682      7.19064        -0.138742     -0.032381     -0.181682
O       9.56983      3.70712     11.47174        -0.024367      1.219910      0.248603
O       9.38582      0.00438     11.50408         0.965871     -0.218818     -0.180682
O       9.62081      7.59657      2.74887         0.010311      0.374822      0.170402
O       9.62765      7.75716     16.00012        -0.092737     -0.591279     -0.691348
O       9.53045      7.53825      7.09087        -0.120817      1.366119      0.427584
O       9.63573      7.64677     11.21097        -0.416591     -0.707766      0.699761
O       9.50550     11.43279      2.89517         0.337558     -0.187530     -0.404618
O       9.60097     11.52969     15.70277        -0.083647     -0.392214      0.570823
O       9.52735     11.56037      7.16368         0.153833     -0.454937     -0.445384
O       9.61570     11.52682     11.46035        -0.338060      0.208753     -0.072380
