  # total energy = -7881.10356079 
CRSYTAL
PRIMVEC
    15.3600000000000000    0.0000000000000000    0.0000000000000000
     0.0000000000000000   15.3600000000000000    0.0000000000000000
     0.0000000000000000    0.0000000000000000    17.440000000000000
PRESSURE
2.55427 1.98578 -0.877428 0.110305 0.005914 -0.020675
PRIMCOORD
320 1
Pb       3.81950      3.86484      4.22353        -0.392988      0.268602      0.352027
Pb       3.76761      3.90762     17.33432         0.189218     -0.943440      1.420502
Pb       3.87200      0.00500      4.21605        -0.270506     -0.035920      0.797269
Pb       3.98047      0.04931      0.02101        -0.899310     -0.215934      0.096758
Pb      15.22637      3.93210      4.28387         1.066813     -0.801585      0.645598
Pb      15.20211      3.74167     17.37571         0.613066     -0.121116      0.177934
Pb      15.23945     15.31750      4.33160         0.027949      0.300182      0.232302
Pb       0.10899      0.00537     17.41863        -0.377349     -0.065855      0.008506
Pb       3.95634      3.88885      8.56728        -0.652738     -0.287518      1.380101
Pb       3.77399     15.25908      8.76242         0.455560      0.363295     -0.716679
Pb       0.15461      3.68265      8.65228        -0.235067      0.555577      0.824667
Pb       0.17837     15.30431      8.57563        -0.746949      0.256547      0.266511
Pb       3.87220      3.94814     13.07503        -0.629146     -0.365737      0.431196
Pb       4.01007     15.32243     13.23748        -0.790817      0.033699      0.026980
Pb      15.23315      3.87477     12.95119         0.797085     -0.094516      0.271522
Pb      15.32476      0.03934     12.99063         0.334203     -0.209392      0.779791
Pb       3.79231      7.65234      4.30410         0.016432     -0.206425     -0.037074
Pb       3.84825      7.78281      0.00225        -0.089362      0.094756      0.157203
Pb      15.19143      7.43806      4.29316         0.652384      1.418177      0.938256
Pb       0.19003      7.66606     17.41145        -0.772978      0.484148     -0.012682
Pb       3.81261      7.55716      8.66034        -0.118553      0.391259      0.527893
Pb      15.30510      7.69820      8.64993         0.353212     -0.330280      0.753229
Pb       3.81184      7.82976     13.08629         0.652839     -0.751277      0.350673
Pb      15.33277      7.74210     12.90780        -0.115050     -0.112258      0.379445
Pb       3.84635     11.41176      4.34625         0.043749     -0.223115      0.016552
Pb       3.71750     11.42483     17.42996         0.318033      0.218394      0.659847
Pb      15.35082     11.41439      4.27367        -0.334268     -0.113987      0.856806
Pb       0.08793     11.38599      0.07779        -0.195372      0.190061     -0.209598
Pb       3.71747     11.49907      8.67468         0.529975     -0.382122     -0.136770
Pb       0.10499     11.60363      8.59300        -0.669810     -0.561072      0.472165
Pb       3.73610     11.58518     12.99685         0.770358     -0.015934      1.040300
Pb      15.12902     11.42701     13.01140         0.217873      0.117251      0.590172
Pb       7.58081      3.95232      4.26468         0.122035     -0.530795      0.814716
Pb       7.71382      3.83821     17.31351        -0.922078     -0.124572      1.321813
Pb       7.57210     15.35352      4.18715         0.040242      0.164959      0.845178
Pb       7.81062     15.26581      0.00023        -0.040575      0.263021      0.267865
Pb       7.71217      3.75640      8.68616        -0.832077      0.007424      0.154071
Pb       7.69197      0.04064      8.67167        -0.538642     -0.412942     -0.139414
Pb       7.48427      3.66824     13.02868         1.236002      0.423610      0.551321
Pb       7.71668     15.05427     13.13365        -0.762238      1.292924      0.617493
Pb       7.58782      7.77850      4.34726         0.299090     -0.418973      0.477832
Pb       7.78637      7.49769     17.36924        -0.491257      1.166007      0.312101
Pb       7.62204      7.62161      8.69458        -0.435351      0.021339      0.390261
Pb       7.72578      7.61743     13.04167        -0.463760      0.243240      0.248050
Pb       7.66641     11.51365      4.24865        -0.518406     -0.272537      1.357251
Pb       7.69905     11.45291     17.33867        -0.060620     -0.231376      1.029645
Pb       7.76080     11.41847      8.78879        -0.782094      0.340175     -0.440487
Pb       7.58064     11.52334     13.08112        -0.309851     -1.020057      0.185403
Pb      11.57234      3.90641      4.37645        -0.434562      0.019355     -0.072100
Pb      11.26666      3.78317     17.29884         1.191154      0.295084      0.695854
Pb      11.47111      0.14877      4.28971         0.542139     -0.433712      0.022673
Pb      11.70612      0.04237     17.30856        -0.387873     -0.092055      0.784148
Pb      11.67929      3.71180      8.68974        -0.275917      0.175362      0.639107
Pb      11.50596     15.30260      8.62140         0.019273      0.005765      1.216566
Pb      11.41185      3.91252     12.89958        -0.151345     -0.008347      0.117448
Pb      11.42033     15.29654     13.08191         0.667600     -0.222784      0.263839
Pb      11.53309      7.69062      4.36780        -0.536670     -0.116495      0.196867
Pb      11.44060      7.65079     17.32842         0.136767      0.528518      0.872327
Pb      11.44656      7.58979      8.65858         0.778276      0.032448      0.883959
Pb      11.62514      7.71574     12.93966        -0.428538     -0.319197      0.566365
Pb      11.39523     11.56240      4.37683         0.262244     -0.171895      0.261168
Pb      11.64991     11.57497     17.40662        -0.207395     -0.389006      0.480401
Pb      11.34638     11.52199      8.75384         0.535398     -0.052772      0.060015
Pb      11.38202     11.55887     13.02760         0.754716     -0.040526      0.403073
Ti       1.92894      1.84912      2.31850        -0.965052      1.048461      0.143566
Ti       1.92763      1.96084     15.44084        -0.116269     -0.697631     -1.802881
Ti       1.84249     13.40046      2.40019         0.381041     -0.198624     -2.073380
Ti       1.87047     13.43944     15.51913         0.483247      0.391626      1.031628
Ti      13.46437      1.96939      2.30013        -0.429332     -0.762682      0.524122
Ti      13.39802      1.97257     15.21730         0.752957     -0.771736      2.300323
Ti      13.38360     13.44305      2.47450        -0.612642      0.357814     -1.756973
Ti      13.46884     13.41633     15.45282        -0.116083     -0.090220     -1.364599
Ti       1.97279      1.93692      6.68527        -0.132254     -0.174151     -1.307573
Ti       1.91144     13.35425      6.58918        -0.346283      1.271465      0.314520
Ti      13.41425      1.80818      6.74668         1.253326      0.344357     -1.034405
Ti      13.32591     13.33274      6.74696         1.181691      0.648972     -1.930539
Ti       1.91752      1.87499     11.14433         0.573205      0.551360     -0.297932
Ti       1.89467     13.43354     11.08273        -0.197556      0.096218      0.017063
Ti      13.42673      1.83883     11.08870        -0.424128      0.092217     -1.613307
Ti      13.44051     13.38705     11.07695        -1.070386      0.160923     -1.091329
Ti       1.81542      5.69372      2.23279         1.475530      0.524488      0.790238
Ti       1.95933      5.78593     15.39294        -0.858409      0.087929     -0.607083
Ti      13.32519      5.81189      2.31219        -0.170559      0.060356     -0.070732
Ti      13.43232      5.77511     15.41646         0.128760      0.159973     -0.801408
Ti       1.91809      5.76142      6.74445        -0.705554      0.183796     -1.403764
Ti      13.44045      5.66782      6.84905         0.574412      0.907856     -0.413479
Ti       1.96588      5.74242     11.07802         0.118867     -0.464875     -1.702721
Ti      13.46764      5.67617     11.02328        -0.883322      0.709447     -1.410423
Ti       1.82743      9.50045      2.47234         1.095367      0.331494     -1.641252
Ti       1.87230      9.59737     15.32777        -0.017432      0.990298      0.726435
Ti      13.31131      9.66198      2.39075         0.845332     -0.527035     -2.175723
Ti      13.38120      9.55607     15.48195         0.507984      0.468533     -0.269137
Ti       1.89241      9.53558      6.68097         0.212316     -0.477601     -0.820711
Ti      13.40768      9.56801      6.81900         0.525675     -0.256354     -1.177957
Ti       1.94929      9.58599     11.00866        -0.545561     -0.088933     -2.019085
Ti      13.40356      9.58656     10.89607         0.144962      0.786319     -1.083942
Ti       5.72749      1.93198      2.23548         0.326714      0.194352     -0.891497
Ti       5.83062      1.87169     15.50930        -1.398666      0.021503      2.571149
Ti       5.67194     13.36520      2.37541         0.105228     -0.457801      0.494624
Ti       5.76568     13.38760     15.54842        -1.191553      0.021204     -1.776996
Ti       5.71239      1.84988      6.67368        -0.202551     -0.109313      0.886039
Ti       5.69094     13.32929      6.72062         0.919075      0.625350     -1.238579
Ti       5.63796      1.85025     11.10596         0.914401      0.323959     -1.287773
Ti       5.70128     13.44919     11.09388        -1.160726     -0.065913      0.045433
Ti       5.73451      5.74215      2.22869        -1.441990      0.061707     -0.132112
Ti       5.70939      5.71013     15.48335        -0.022032      0.921778     -1.503538
Ti       5.73344      5.78227      6.66614        -0.248462     -0.604199     -0.000833
Ti       5.74508      5.76773     11.11447        -0.114382      0.245525     -1.778543
Ti       5.77070      9.55299      2.30273        -1.116391      0.153983     -0.576092
Ti       5.73022      9.58522     15.51148        -0.055603     -0.244104     -1.373188
Ti       5.74582      9.54768      6.73940        -0.109610      0.748610     -1.908879
Ti       5.74037      9.60811     11.06350         0.574173     -0.694204     -0.093432
Ti       9.58281      1.94660      2.35947        -0.021084      0.014746     -0.945581
Ti       9.54428      1.95765     15.34492         0.313369     -0.947765     -0.130630
Ti       9.55393     13.41231      2.39140         0.478096      0.144238     -1.512676
Ti       9.62615     13.42725     15.49539         0.698915      0.255585     -0.647962
Ti       9.58834      1.95162      6.64648        -0.666005     -0.333476     -0.095531
Ti       9.53121     13.47533      6.69182        -1.281740     -0.464104      0.865390
Ti       9.50502      1.83449     11.11147         0.108839      0.590126      0.154394
Ti       9.47823     13.44056     11.12237         1.106539     -0.826182     -0.921857
Ti       9.50214      5.72835      2.39551         0.551682      0.909034      0.311444
Ti       9.59132      5.81637     15.31797         0.317205     -0.024977     -1.614145
Ti       9.57021      5.69049      6.81982        -0.378063      0.396729     -2.714014
Ti       9.54556      5.72530     10.99330        -0.159692      0.149268      1.971468
Ti       9.53733      9.56625      2.37081         1.355381     -0.752400     -1.920684
Ti       9.58777      9.65637     15.36382        -0.394329     -0.641824      0.650185
Ti       9.61184      9.49986      6.81666        -1.256732      0.957311     -1.100473
Ti       9.59459      9.54017     11.10047        -0.574498      0.090219     -0.414807
O       1.69150      1.99653      0.57913         0.336467     -0.399814      0.077047
O       2.01424      1.97294     13.61751        -0.703242     -0.111748      1.100869
O       1.80957     13.43903      0.54802         0.126267     -0.158392      1.613410
O       1.99389     13.45788     13.80996         0.004400     -0.204956     -1.368668
O      13.36558      1.96304      0.56687         0.422298      0.260015     -0.376703
O      13.56345      1.96697     13.51003        -0.273561      0.259637     -1.288071
O      13.22372     13.39893      0.65061         0.306387      0.073426      0.574560
O      13.29153     13.32915     13.66661         0.650629      0.344547      0.129454
O       2.13286      1.95357      4.92691        -0.630941     -0.156722     -0.254496
O       1.84881     13.41191      4.88740        -0.063565      0.084170     -1.593505
O      13.44883      1.76527      4.92892        -0.257238      0.449498      0.963474
O      13.50021     13.45565      4.87442        -0.775416     -0.188994      1.438406
O       1.85543      1.85700      9.35008         0.246931     -0.301782      0.475813
O       1.81139     13.41140      9.29185         0.563184      0.014042      0.171011
O      13.50459      1.89693      9.26793        -0.310072     -0.265548      0.948293
O      13.41338     13.47252      9.29620        -0.019536     -0.245650      0.290801
O       1.87679      5.70717      0.48177        -0.265596      0.337508     -0.335503
O       1.99564      5.88418     13.60315        -0.266052     -0.412819      0.614854
O      13.27751      5.71818      0.60945         0.176381      0.011525     -0.777092
O      13.41461      5.72904     13.58253         0.008301     -0.025726      0.823057
O       1.94618      5.86510      4.93956        -0.210226     -0.338327      0.414995
O      13.37693      5.83395      5.03842         0.270766     -0.438030      0.060532
O       1.97388      5.70505      9.29035         0.224519      0.290715      0.795367
O      13.40762      5.66262      9.24494        -0.341592      0.061633      0.143607
O       1.99784      9.62737      0.60316        -0.768884     -0.336958      0.834375
O       1.86872      9.53958     13.57921        -0.060126      0.178585     -0.998213
O      13.36788      9.73402      0.52531        -0.128774     -0.109178      1.225516
O      13.47554      9.56895     13.70326        -0.068286     -0.089194      0.249458
O       1.98408      9.55736      4.84005        -0.431690     -0.266838      0.906959
O      13.50426      9.61781      4.99918        -0.545516     -0.226142      0.828731
O       2.00330      9.63371      9.13155        -0.345146      0.160274      2.262150
O      13.45761      9.60116      9.08959        -0.349980      0.148327      1.410105
O       5.67027      1.96731      0.46694         0.644761     -0.270601      0.598240
O       5.83925      1.76334     13.83798        -0.000931      0.004312     -2.663686
O       5.85732     13.26056      0.67283        -0.238316      0.264474     -0.715209
O       5.67849     13.53466     13.60839         0.326224     -0.524219      2.226003
O       5.79641      1.73767      4.96095        -0.413479      0.360977     -1.337575
O       5.75679     13.33168      4.89536        -0.178258      0.283454      1.017592
O       5.62702      2.03294      9.32609         0.161936     -0.571941      0.421130
O       5.60450     13.47463      9.35918        -0.007876     -0.085921     -0.621212
O       5.59776      5.73139      0.44332         0.750949      0.141576      0.486308
O       5.55788      5.84484     13.65980         0.647031     -0.449187      1.529284
O       5.62400      5.73243      4.90728         0.301852     -0.040368      0.144214
O       5.63355      5.76150      9.24050         0.526727     -0.136732      1.324608
O       5.65271      9.70716      0.49811         0.264914     -0.693719      0.805064
O       5.66343      9.61059     13.69525         0.246924     -0.114446      0.802857
O       5.83022      9.55375      4.85248        -0.273443     -0.064565      2.010849
O       5.79579      9.52469      9.31461        -0.125230      0.177297     -0.205943
O       9.39840      1.97099      0.55905         0.768032      0.070646      0.769845
O       9.48794      1.93391     13.59927         0.028878      0.166967     -0.074802
O       9.52742     13.47494      0.54943         0.158561     -0.152418      1.222991
O       9.68697     13.52428     13.67054        -0.521401     -0.714152      0.920982
O       9.65805      2.10230      4.89182         0.111648     -0.624194      0.368991
O       9.58195     13.32319      4.98198        -0.122454      0.315115     -1.262021
O       9.45099      1.81724      9.35054         0.219721      0.021791      0.185352
O       9.43856     13.60183      9.34795         0.146139     -0.552024      0.827346
O       9.59813      5.76412      0.62090        -0.212688     -0.036546      0.213791
O       9.69023      5.86178     13.51397        -0.299360     -0.482274      1.473243
O       9.55042      5.79349      4.98029         0.208836     -0.516098      1.259393
O       9.54339      5.68717      9.27312        -0.163163      0.178365     -1.567925
O       9.69410      9.49656      0.56847        -0.561469      0.159461      1.254149
O       9.55993      9.60149     13.61463         0.035388     -0.012079     -0.017014
O       9.44266      9.52342      5.03938         0.706109      0.090359      0.570786
O       9.52414      9.49837      9.27018         0.249401      0.463633      0.950650
O       3.85148      1.85193      2.51873        -0.333339      0.547350      0.646096
O       3.78142      1.83660     15.86073         0.587072     -0.124524      0.052765
O       3.73715     13.35999      2.78621         0.916369      0.004898     -0.258599
O       3.91285     13.44046     16.02530        -0.296945      0.078416     -0.625967
O      15.31484      1.86899      2.81589         0.505332      0.038120     -0.164261
O      15.29593      1.83175     15.78030         0.260686      1.072410     -0.110955
O      15.27076     13.49382      2.64781         0.561654      0.087747      0.528220
O      15.31146     13.38208     15.85739         0.325320      0.324119     -0.002013
O       3.76696      1.92264      7.06583         1.358582     -0.109535      0.607108
O       3.78331     13.34041      6.99848         0.247025      0.254095      0.566093
O       0.06417      1.90623      7.10534        -0.697681     -0.556226     -0.214077
O      15.26727     13.34838      6.99833         0.671400      0.378012      0.388235
O       3.85493      1.81765     11.60243        -0.611032      0.069686     -0.281095
O       3.79706     13.50864     11.56018        -0.315981     -0.152305     -0.361460
O       0.00299      1.94946     11.52842         0.024326     -0.040500     -0.159958
O      15.31637     13.24497     11.45122         0.464859      0.692259      0.086285
O       3.81046      5.66467      2.65211         0.322226      0.297668     -0.026525
O       3.76697      5.62156     15.85126         0.806269      1.573559     -0.484225
O      15.30873      5.80138      2.68897        -0.451217     -0.122094     -0.223470
O      15.35602      5.93374     15.73518        -0.107886     -0.886166      0.105893
O       3.78628      5.75920      7.05347         0.966379      0.506505      0.126399
O       0.01385      5.82374      7.17542        -0.983683     -0.573313     -0.321803
O       3.89919      5.84565     11.49503        -1.287684     -0.275387     -0.016135
O      15.29046      5.72252     11.25922         0.725429     -0.266528      0.954504
O       3.82965      9.56118      2.69096         0.412472     -0.041127      0.332723
O       3.77272      9.58824     15.75936         0.597819      0.168722      0.272621
O      15.33548      9.45147      2.71111        -0.048171      0.703847      0.135586
O      15.34585      9.60383     15.79479         0.046484     -0.034529      0.301034
O       3.80430      9.50115      7.04946         0.295386      0.110996     -0.030073
O      15.34516      9.48233      7.09357         0.343031      0.790449     -0.198967
O       3.82581      9.43021     11.37543        -0.592458      0.572701      0.012487
O      15.29876      9.75147     11.38489         0.654556     -0.389565     -0.173948
O       7.69346      1.95332      2.80391        -0.201208     -0.449357     -0.385682
O       7.67247      1.93077     15.91324         0.307057      0.053474     -0.390385
O       7.59514     13.41125      2.82734         0.875499      0.093535     -0.526798
O       7.69300     13.36489     15.83042         0.240370      0.469015     -0.131036
O       7.59628      1.95419      7.03925         1.130549     -0.179320      0.295983
O       7.60845     13.36953      7.18209        -0.107634      0.461624     -0.168639
O       7.63004      1.88799     11.46378         0.478003     -0.107676      0.191172
O       7.50834     13.33353     11.53889         2.633168      0.293894     -0.069168
O       7.56651      5.76703      2.83732         0.935566     -0.263257     -0.880537
O       7.70551      5.79748     15.77187        -1.238218     -0.464566     -0.206570
O       7.61954      5.73939      7.03597         0.590682     -0.070669      0.445672
O       7.60732      5.77697     11.50089         0.975686     -0.495744     -0.150765
O       7.72451      9.59843      2.69652        -1.212842     -0.085927     -0.081738
O       7.66690      9.59143     15.87768         0.202056     -0.201512     -0.321918
O       7.64973      9.55428      7.20624         0.432698      0.056057      0.009135
O       7.60861      9.62705     11.56442         0.936630     -0.133534     -0.287900
O      11.56164      1.97433      2.66909        -1.151200      0.441891      0.477530
O      11.48066      1.96809     15.57439        -0.448543      0.450902      0.387063
O      11.43041     13.40122      2.87387         0.125525     -0.467654     -0.033664
O      11.56653     13.54664     15.82368        -1.147969     -0.538794      0.217167
O      11.53003      1.82285      7.21440        -0.588529      0.820665     -0.812146
O      11.40720     13.43855      7.12569         1.140707     -0.281128      0.032267
O      11.48009      1.84119     11.45696        -0.153576      0.284557     -0.079671
O      11.41712     13.45285     11.45947         0.452892     -0.184050     -0.071830
O      11.47472      5.79140      2.84182         0.151925     -0.156954     -0.125816
O      11.47640      5.81037     15.76493         0.172917     -0.849374     -0.024822
O      11.46824      5.62591      7.07230         0.855044      0.057452      0.540027
O      11.41899      5.84218     11.36772         1.327308     -0.463114      0.113732
O      11.48532      9.59441      2.78785        -0.451582      0.196419      0.397325
O      11.44394      9.61961     15.80139         0.483429     -0.397139     -0.207466
O      11.48281      9.57776      7.22949        -0.228235      0.348790     -0.396538
O      11.52287      9.61121     11.52597        -0.385115     -0.234050     -0.841013
O       1.83665      3.87839      2.79874         0.019609     -0.775101     -0.262700
O       1.99974      3.83164     15.84335        -1.442125      0.554026     -0.635598
O       1.99512      0.01207      2.70282        -0.692203     -0.521717      0.079069
O       1.85689      0.01399     15.87384         0.207305     -0.241342      0.089242
O      13.49698      3.87766      2.80493        -0.601579      0.335789     -0.364864
O      13.45571      3.82444     15.91673        -0.500719      0.675169     -1.242426
O      13.24588      0.01558      2.63810         0.649264     -0.193009      0.594086
O      13.42010      0.08824     15.79190         0.028069     -0.466443     -0.429525
O       1.91524      3.88605      7.10666        -0.101983     -0.823993     -0.234217
O       1.94501     15.29164      7.01067        -0.160568      0.018259      0.381295
O      13.57704      3.76729      7.15991        -0.979219      0.116715     -0.414035
O      13.39346     15.34972      7.11412         0.247493     -1.090539     -0.012264
O       2.04691      3.83951     11.39747        -0.497641     -0.091839      0.504455
O       1.87560     15.32765     11.50756        -0.385358     -0.439731     -0.249810
O      13.38899      3.78283     11.30518        -0.267905      0.589221      0.780022
O      13.43895     15.34490     11.51522         0.251175     -0.575821     -0.113245
O       2.01831      7.62639      2.66990        -0.606397     -0.513853     -0.057088
O       1.94171      7.78516     15.79350         0.140121     -1.701425      0.235476
O      13.43740      7.80155      2.68879        -0.609478     -2.251965      0.335251
O      13.37570      7.66096     15.90834         0.086383     -0.123847     -0.352446
O       1.84659      7.62661      7.21526         0.575804      0.948284     -0.446533
O      13.40169      7.63880      7.21036        -0.535724     -0.248058     -0.346514
O       1.74187      7.64412     11.34299         0.492512      1.214448      0.145538
O      13.48898      7.76839     11.30299        -0.274796     -1.184788      0.340760
O       1.81975     11.49369      2.75214         0.010117      0.167729     -0.084427
O       1.95554     11.53809     15.92458        -0.510195     -0.629272     -0.632930
O      13.46688     11.48216      2.81477        -0.252381      0.721354      0.072105
O      13.41612     11.51588     15.78561        -0.253049     -0.134692      0.315035
O       1.98918     11.48177      6.95933        -0.751413     -0.581636      0.479829
O      13.46478     11.48923      7.19865        -0.872711      0.452464     -0.382937
O       2.05288     11.51615     11.47260        -0.540253     -0.415658     -0.585358
O      13.27653     11.49008     11.39696         0.333147      0.246172      0.183011
O       5.74369      3.79807      2.64560         0.187818      0.267710      0.241669
O       5.61263      3.79621     15.80612         0.998491      0.506627     -0.415839
O       5.71842     15.34587      2.59887         0.258038     -0.345923      0.328304
O       5.76565     15.29604     15.99955         0.569536      0.076488     -0.403162
O       5.68095      3.86367      7.12186         0.600563     -0.280007     -0.774138
O       5.65159     15.31496      7.10882         0.006064     -0.040852      0.211661
O       5.76935      3.74030     11.64508        -0.801952      0.733705     -0.779566
O       5.81459     15.34552     11.49075        -0.234816     -0.089198      0.051684
O       5.81481      7.63334      2.69289        -0.462584      0.243145     -0.431105
O       5.75838      7.66970     15.88046        -0.402087     -0.416818      0.015293
O       5.80476      7.70007      7.07342        -0.321074     -0.790065      0.141390
O       5.84119      7.60063     11.44706        -0.312202      1.233407      0.131398
O       5.69894     11.36640      2.88526         0.416489      1.404161     -0.796849
O       5.77319     11.50403     15.89271        -0.035156      0.155858     -0.414191
O       5.67665     11.45554      7.19560         0.185004     -0.058474     -0.077642
O       5.75554     11.50374     11.49891        -0.897555     -0.248496     -0.139581
O       9.57881      3.87105      2.72637         0.038195     -0.221547      0.160331
O       9.42444      3.91363     15.90596         1.285684     -0.703139     -1.426943
O       9.70677     15.34458      2.73195        -1.049419      0.333277     -0.063737
O       9.55307      0.02571     15.74400        -0.161884      0.065786      0.236191
O       9.58426      3.78398      7.12133        -0.027651     -0.229000      0.313716
O       9.53562      0.01250      7.13187        -0.052711      0.502484     -0.500343
O       9.52087      3.87284     11.41358         0.248472     -1.084451      0.133472
O       9.60578     15.23394     11.65257        -1.081225      1.403462     -0.768708
O       9.54487      7.63923      2.85900         0.135823      0.322139     -0.372364
O       9.53556      7.62624     15.81014         0.242177      0.902231     -0.149015
O       9.67110      7.61872      7.20068        -0.631839      0.096943     -0.299708
O       9.60318      7.70380     11.52475        -0.450789     -0.023829     -0.544656
O       9.57092     11.49616      2.83098         0.136731      0.164415     -0.498741
O       9.58015     11.49960     15.84676         0.244998      0.736667     -0.518319
O       9.50688     11.58837      7.23168         0.651609     -1.211522     -0.037510
O       9.59444     11.45909     11.55651        -0.648507      0.721875     -0.755526
