  # total energy = -7877.70446830 
CRSYTAL
PRIMVEC
    15.2000000000000000    0.0000000000000000    0.0000000000000000
     0.0000000000000000   15.2000000000000000    0.0000000000000000
     0.0000000000000000    0.0000000000000000    17.000000000000000
PRESSURE
7.68721 7.96308 2.8054 0.003055 0.221098 0.02075
PRIMCOORD
320 1
Pb       3.91642      3.66780      4.17311        -0.469318     -0.171769     -0.168998
Pb       3.59968      3.64994     16.86648         0.736292     -0.120964      0.876873
Pb       4.00200     14.94431      4.08547        -0.979004      0.629178      0.571712
Pb       3.62307     15.13620     16.90470         0.219179      0.488462      0.239015
Pb      15.18123      3.50067      4.20519        -0.047534      0.770945     -0.155046
Pb      15.07921      3.92764     16.97149        -0.101109     -0.551658      0.128420
Pb      15.12692     14.88728      4.16686         0.354521      1.221838      0.265406
Pb      15.06112      0.01444      0.10403        -0.053955     -0.046914     -0.305433
Pb       3.47018      3.95316      8.52338         0.886483     -0.983392      0.863810
Pb       3.80687      0.07952      8.32214        -0.523279     -0.241786      0.051783
Pb      15.15602      3.81791      8.39789         0.148546     -0.157609      0.307766
Pb       0.11260      0.11560      8.21034        -0.212838     -0.531761      0.588701
Pb       3.73052      3.77854     12.73332         0.318009      0.072532      0.213123
Pb       3.77539      0.04270     12.72154        -0.409316     -0.405234      0.616529
Pb      15.04084      3.95525     12.76144         0.817491     -0.762293      0.447146
Pb      15.05470      0.00177     12.66035         0.341594      0.006765      0.377320
Pb       3.90597      7.43282      4.14796        -0.461564      0.315346     -0.374541
Pb       3.60935      7.47446     16.83591         0.673350      0.338365      1.589710
Pb      15.19243      7.41891      4.28431        -0.063850      0.236846     -0.274493
Pb      15.02063      7.50953      0.16974         0.042254      0.382597     -0.541407
Pb       3.79298      7.50613      8.58381         0.099743      0.506887     -0.227479
Pb       0.09593      7.67972      8.47268         0.141610      0.113585      0.206517
Pb       3.77677      7.76457     12.86553        -0.098285     -0.536447      0.006146
Pb      15.18174      7.77482     12.88173         0.391902     -0.229402     -0.436512
Pb       4.09976     11.27221      4.13719        -0.861629     -0.047641     -0.185145
Pb       3.66587     11.39332     16.72913        -0.220261      0.087545      1.003832
Pb       0.12704     11.23380      4.22307        -0.429231     -0.016676     -0.004011
Pb      15.01576     11.35385      0.00243         0.725625      0.213214      0.600879
Pb       3.81298     11.41766      8.44239         0.049304     -0.202042      0.286301
Pb       0.20638     11.40888      8.36216        -1.230879     -0.196152      0.639942
Pb       3.90344     11.61159     12.63567        -0.274447     -0.407261      0.482005
Pb       0.04244     11.58277     12.75499         0.029910     -0.458925     -0.252579
Pb       7.61180      3.86871      4.37485        -0.008390     -0.707922     -0.174030
Pb       7.55636      3.77381     16.90129         0.172776     -0.092505      0.112930
Pb       7.58558     15.15723      4.24246         0.202005      0.243701     -0.340643
Pb       7.51256     15.19075     16.86823         0.492864      0.336812      0.059049
Pb       7.28548      3.73964      8.73482         0.778436      0.495491     -0.080772
Pb       7.54333      0.06140      8.65677         0.237253     -0.195483     -0.777752
Pb       7.65515      3.75256     12.70003        -0.539318      0.407424      0.436766
Pb       7.50052     15.02301     12.74024         0.372381      0.602925      0.529762
Pb       7.45375      7.51963      4.11085         0.344079      0.533123      0.217163
Pb       7.78067      7.49366      0.03880        -0.225640     -0.299276     -0.515500
Pb       7.51077      7.50222      8.60393         0.287659      0.498281     -0.462798
Pb       7.63481      7.63763     12.71800         0.333295     -0.138172      0.384295
Pb       7.64993     11.50672      4.27455         0.320032     -0.685825     -0.302733
Pb       7.40453     11.32899     16.97569         0.966626      0.019836     -0.304444
Pb       7.68278     11.30411      8.60215        -0.013763     -0.255263     -0.375828
Pb       7.73036     11.53899     12.77639        -1.161320     -0.637261      0.448681
Pb      11.25973      3.80567      4.40286         1.221805     -0.675603      0.649215
Pb      11.29055      3.85318     16.91718         0.513936     -0.348395      0.694961
Pb      11.29211     15.16380      4.28428         0.103845      0.344228     -0.035418
Pb      11.29121      0.14526      0.07490         0.104455     -0.166663      0.018175
Pb      11.34072      3.81733      8.49481         0.382266     -0.002634     -0.272123
Pb      11.51961     15.15361      8.58476        -0.043917      0.468996     -0.949241
Pb      11.43658      3.81160     12.58781        -0.331102      0.057236      0.901295
Pb      11.38313      0.01425     12.62868        -0.077016     -0.320147      0.714252
Pb      11.27632      7.37381      4.32525         0.675672      1.279457      0.136945
Pb      11.45315      7.66241      0.08356         0.205861     -0.466252     -0.233393
Pb      11.48861      7.63729      8.54843        -0.434193      0.221315     -0.537964
Pb      11.56979      7.78994     12.79348        -1.009629     -0.522918     -0.304276
Pb      11.39458     11.47959      4.28526        -0.889810     -0.458634      0.136298
Pb      11.35074     11.25895      0.08983        -0.069700      0.083685      0.061047
Pb      11.47176     11.32258      8.35625        -0.213705     -0.187642      0.115763
Pb      11.48892     11.40819     12.72758        -0.318700      0.346848     -0.251713
Ti       1.87348      1.75232      2.25351         0.261901     -0.097046      0.113953
Ti       1.76806      1.87466     14.94561         0.138902     -0.606980     -0.590911
Ti       1.83714     13.12418      2.21293         0.370277      1.917006     -0.452893
Ti       1.74643     13.37169     14.96555        -0.336804     -0.240825     -0.254414
Ti      13.22448      1.84889      2.29095        -0.066590      0.012934      0.633727
Ti      13.18727      1.87669     15.01357         0.176819      0.158143      0.100694
Ti      13.17085     13.19049      2.32757        -0.320211      1.482854     -0.947574
Ti      13.10513     13.27412     15.06931         1.383331      1.591337     -0.492782
Ti       1.95786      1.97821      6.35747        -0.083318     -1.024574     -0.493086
Ti       1.91155     13.19030      6.32791         0.161430      2.104437     -0.594121
Ti      13.31660      1.87395      6.35611        -0.941545      0.125377      0.094435
Ti      13.25685     13.26884      6.44791        -0.217562      0.101400      0.007560
Ti       1.90599      1.87263     10.74582        -0.410792      0.207987     -0.290651
Ti       1.83922     13.36485     10.60410         0.133091     -0.751095      0.964120
Ti      13.34680      1.91646     10.66647        -0.387028     -0.583918     -0.772122
Ti      13.28756     13.25361     10.57438         0.217521     -0.062866      1.365450
Ti       1.88806      5.58163      2.22850         0.068339     -0.728780     -0.954282
Ti       1.93441      5.69350     14.98996        -1.506817     -0.386250      0.710063
Ti      13.29014      5.67402      2.35220         0.595254     -1.163533      0.117427
Ti      13.23658      5.72244     14.92180         0.148936      0.162643      2.293310
Ti       1.92316      5.76574      6.40240        -0.599053     -0.765688      0.429443
Ti      13.34480      5.72342      6.55230         0.338599     -0.898466     -1.194459
Ti       1.86372      5.75186     10.90990         0.034661     -0.245500     -1.148976
Ti      13.32389      5.74368     10.69385         0.270323      0.114006      0.087343
Ti       1.89656      9.37341      2.23598         0.222201     -0.126898     -1.544240
Ti       1.84756      9.50732     15.03050        -0.884914      0.332996     -0.902034
Ti      13.22562      9.45323      2.42844        -0.070127     -0.836416     -0.683600
Ti      13.30618      9.56967     14.97925        -0.152956     -1.042855      0.933936
Ti       2.01052      9.50765      6.37017        -0.512976     -0.868981      0.189812
Ti      13.37696      9.44936      6.43464         0.068793      0.962495     -0.885222
Ti       1.94985      9.55022     10.76707        -1.808407      0.379040     -0.378566
Ti      13.38736      9.51463     10.73546         0.520671      0.705238     -1.802069
Ti       5.67398      1.77931      2.05980         0.504436      0.631401      0.115266
Ti       5.71672      1.89633     14.91453        -0.976146      0.102488      0.566987
Ti       5.66960     13.16535      1.99355        -0.130398     -0.158299      2.011459
Ti       5.66533     13.29318     15.04767        -0.198269      0.551999     -1.031676
Ti       5.77652      1.90240      6.50610        -0.827029     -0.128906      0.284135
Ti       5.72359     13.23951      6.49995         0.461410      0.012047     -0.158293
Ti       5.66559      1.84936     10.83073         0.514996      1.208015     -0.430749
Ti       5.60205     13.33275     10.62133         0.194312     -1.221029      1.323221
Ti       5.66542      5.51828      2.06702         0.322646      0.834506     -1.323092
Ti       5.68664      5.65242     15.04788         0.656643     -0.538757     -0.095309
Ti       5.63673      5.60834      6.63965         1.305151      0.360249     -0.412157
Ti       5.64673      5.71694     10.89217        -0.417150     -0.881874     -0.829959
Ti       5.70322      9.33170      1.92184        -0.387274      0.735448      1.726024
Ti       5.70671      9.39948     14.96675        -0.129986     -0.192201     -0.046458
Ti       5.76195      9.50296      6.51971         0.181192     -0.666589      0.512763
Ti       5.67947      9.40747     10.77310         0.999957      1.760132     -0.776572
Ti       9.44616      1.93336      2.29229         0.110316     -0.133843     -0.698616
Ti       9.46232      1.89167     14.89553         0.416083      0.021396      0.954729
Ti       9.37289     13.28336      2.12005         1.150712     -0.858000      0.303446
Ti       9.49646     13.19493     15.11124        -1.664688      1.245182      0.058466
Ti       9.49907      1.88024      6.64539         0.714870      0.163413     -1.067134
Ti       9.44211     13.30491      6.62065         0.728342     -0.362194      0.357523
Ti       9.50315      2.04512     10.73637        -0.417668     -1.637598     -0.336813
Ti       9.43257     13.34151     10.71036         0.539640     -1.078276      0.102699
Ti       9.51110      5.64907      2.28631         0.301220     -0.142173     -0.942032
Ti       9.55622      5.68487     14.90619        -0.217044     -0.087607     -1.085068
Ti       9.44363      5.71111      6.64768        -0.062407     -0.299137      1.755310
Ti       9.52828      5.79222     10.71873        -0.157254      0.244294     -0.217550
Ti       9.46891      9.41196      2.15568         0.436463      1.189715      0.783244
Ti       9.47948      9.43612     15.00098         0.383453     -0.295481     -0.836397
Ti       9.52389      9.40535      6.36831        -0.113731      0.899356      0.739864
Ti       9.52312      9.53350     10.80476         0.267588      0.019284      0.098437
O       1.87583      1.75803      0.44401         0.163751      0.020378      0.250426
O       1.90183      1.68818     13.13669        -0.287553      0.800890      0.753739
O       1.83615     13.37016      0.42161         0.073554     -0.424059      0.121652
O       1.77675     13.35501     13.14858        -0.017870     -0.003702      1.271617
O      13.20350      1.86694      0.52274         0.053944     -0.115776     -0.550694
O      13.15999      1.78084     13.23698         0.147161      0.326143     -0.135782
O      13.16226     13.27120      0.52339        -0.093371     -0.354109      0.425072
O      13.24901     13.27408     13.25636        -0.325762      0.044619      0.850997
O       1.89431      1.90330      4.58590         0.202897      0.058768      0.814202
O       1.84747     13.11973      4.52765         0.336856      0.180490      1.043013
O      13.25720      1.79061      4.53867         0.432480      0.124620      1.380860
O      13.10455     13.29862      4.62784         0.476457     -0.164947      0.729696
O       2.01397      1.86793      8.94558        -0.411547     -0.075212      0.201235
O       1.96318     13.30716      8.86472        -0.110813     -0.022764     -1.026922
O      13.37008      1.95800      8.85499        -0.417121     -0.269620      1.187834
O      13.30759     13.26800      8.82624        -0.085080      0.107800      0.335041
O       1.87968      5.57715      0.34916        -0.200333      0.435056      1.146126
O       1.76318      5.69900     13.24366         0.530379     -0.203031     -0.344506
O      13.29272      5.69691      0.56504         0.080392      0.098520     -0.135418
O      13.25515      5.79575     13.19491        -0.151062     -0.405241     -1.225859
O       1.89550      5.68081      4.65375         0.388003     -0.050804     -0.333444
O      13.37183      5.70293      4.72035         0.148347      0.329276      0.777489
O       1.92370      5.71642      9.05572        -0.004398      0.212331      0.861189
O      13.43343      5.54828      8.92022        -0.234978      0.776285      0.537011
O       1.80784      9.34430      0.35719         0.445188      0.276582      1.530217
O       1.63182      9.46936     13.18932         1.016752      0.322777      1.112608
O      13.17502      9.43150      0.55743         0.546419      0.374077      0.392852
O      13.37367      9.51905     13.19914        -0.305329      0.066647      0.007367
O       2.01690      9.41349      4.60505        -0.139084      0.375928     -0.356351
O      13.40982      9.45644      4.58671        -0.078216     -0.146871      1.484638
O       1.81215      9.67778      8.94276         0.705303     -0.751598      0.927044
O      13.47150      9.56473      8.88129        -0.507622     -0.228999      1.043848
O       5.72816      1.81201      0.27117         0.014609     -0.011179      1.346329
O       5.69069      1.97430     13.12964        -0.149729     -0.161498     -0.512216
O       5.62719     13.21348      0.26607         0.025515      0.088850     -0.790624
O       5.65491     13.41563     13.24337        -0.053655     -0.758619      0.013442
O       5.82471      2.01055      4.73900        -0.022716     -0.239562      0.579862
O       5.77607     13.11826      4.66534         0.221089      0.239072      0.556159
O       5.82895      1.88644      9.00863        -0.717995     -0.737388      0.542018
O       5.62022     13.23786      8.89907         0.278136      0.461254     -0.866558
O       5.75345      5.53941      0.26771        -0.032510      0.604690      1.364764
O       5.56589      5.57376     13.28342         0.344781      0.300070     -0.882415
O       5.81265      5.51446      4.84942        -0.662361      0.371347     -0.197947
O       5.60418      5.68164      9.02599        -0.041857      0.493254      0.898764
O       5.69367      9.40368      0.19115        -0.196256      0.017762     -0.252574
O       5.73065      9.25393     13.15951        -0.076240      0.871707      0.572312
O       5.70926      9.57137      4.71312         0.352204     -0.609570      0.968827
O       5.64037      9.35908      8.93668         0.082436      0.313993      1.269499
O       9.46872      2.06658      0.46362        -0.177670     -0.514118      1.849592
O       9.52513      1.93926     13.14171         0.076406      0.031658     -0.452548
O       9.39220     13.17107      0.35671         0.019823      0.263743      0.359930
O       9.35745     13.37562     13.34086         0.258051     -0.398299     -0.667299
O       9.56407      1.93596      4.81344        -0.940711     -0.517497      0.510561
O       9.36405     13.26985      4.84842        -0.120366      0.254641     -0.811197
O       9.59208      2.01399      8.92927        -0.347175     -0.396090      0.585844
O       9.39688     13.14482      8.92985         0.466883      0.430028      0.912358
O       9.58762      5.62435      0.47818        -0.605202      0.239753      1.522026
O       9.63852      5.71950     13.08326        -0.155904     -0.046484      0.770180
O       9.58361      5.78134      4.89779        -0.696988     -0.250808     -1.444191
O       9.54474      5.63022      8.89159         0.133055      0.570148      1.282403
O       9.58689      9.33170      0.32873        -0.549319      0.378173      0.783785
O       9.48846      9.30231     13.14742         0.129186      0.505792      1.517673
O       9.41957      9.35796      4.61477        -0.168738     -0.010673      0.214025
O       9.52998      9.56820      9.04891         0.374416      0.079442     -0.443720
O       3.88415      1.70683      2.74707        -0.111817      0.368493     -0.923238
O       3.87252      1.81463     15.37106        -1.856495      0.087675     -0.609386
O       3.84909     13.21095      2.60123        -0.026536     -0.189046     -0.781192
O       3.68743     13.40486     15.22248         0.147399     -0.935594      0.293449
O       0.03261      1.77128      2.55561        -0.765508     -0.031903      0.027790
O      15.09080      1.86717     15.31517         0.246040     -0.332369      0.003603
O      15.12531     13.22490      2.59360        -0.042229     -0.743292     -0.256347
O      15.02490     13.42457     15.41310         0.733644     -0.257768     -0.233271
O       3.78827      1.90447      6.79920         0.528736     -0.055186     -0.199554
O       3.86858     13.24688      6.80078        -0.999473     -0.203002     -0.350467
O       0.02922      1.95040      6.76668         0.432820     -0.408963     -0.272624
O      15.12602     13.30582      6.68102         1.761704     -0.120095     -0.140024
O       3.80980      1.87114     11.16277        -0.158961      0.223820     -0.300512
O       3.71522     13.32550     11.09952         0.945765     -0.250350     -0.248116
O      15.15583      1.91850     11.02113         0.733813     -0.574331      0.236202
O      15.18390     13.37442     11.08802        -0.961046     -0.079795     -0.467355
O       3.82871      5.56866      2.54517        -0.093928      0.641065      0.286095
O       3.78221      5.55440     15.45182        -1.452735      0.056907     -0.828831
O       0.04706      5.58255      2.56596        -0.428573      0.356382      0.151372
O      15.10757      5.79049     15.40449         0.812236     -0.362936     -0.212575
O       3.80152      5.68020      7.01769        -1.030746      0.391600     -0.865408
O       0.10614      5.70422      6.99833        -0.508454      0.558330     -0.743882
O       3.74183      5.76914     11.28942         0.423880     -0.453690     -0.222927
O      15.16897      5.72866     11.26074        -0.162078     -0.228267     -0.485104
O       3.82083      9.44488      2.51123         0.295524     -0.470124     -0.140015
O       3.70757      9.63757     15.18611         0.604253     -0.360352     -0.090067
O       0.02112      9.42075      2.60562         0.202717      0.097976     -0.124554
O      15.14282      9.54155     15.44524        -0.430073     -0.498497     -0.289681
O       3.79919      9.52572      6.91239         1.005699     -0.033100     -0.342978
O       0.09925      9.62590      6.84975         0.062788     -0.574298     -0.752628
O       3.77542      9.55100     11.18473         0.512203      0.076709     -0.090857
O       0.00508      9.42985     11.15158         0.589792      0.303619     -0.199775
O       7.53132      1.99205      2.66176         0.390812     -0.309517     -0.283912
O       7.57296      1.91350     15.24231         0.802231      0.114109      0.188114
O       7.54605     13.14086      2.54626        -0.075784      0.249183     -0.095929
O       7.54015     13.35346     15.39756         0.169013     -0.716293      0.005846
O       7.60269      1.93782      7.05767        -0.137323     -0.101696     -0.556760
O       7.65478     13.23070      6.99328        -1.490291      0.186053     -0.090567
O       7.60924      1.88976     11.22481         0.110391     -0.063412     -0.820627
O       7.49808     13.22437     11.17284         1.234310      0.923115     -0.644055
O       7.63862      5.51589      2.61110        -0.497285      0.436549     -0.114007
O       7.65109      5.70124     15.27830        -0.711367      0.316405      0.051671
O       7.56609      5.56173      7.06222         0.367610      0.383515     -0.588000
O       7.55741      5.72823     11.15087         0.607063      0.372335     -0.359756
O       7.58394      9.34046      2.41382        -0.648684      0.239892     -0.283103
O       7.57687      9.28628     15.36208        -0.107792      0.045945     -0.287879
O       7.68465      9.41146      6.98800        -1.233816      0.276592     -0.566219
O       7.61275      9.45608     11.04226        -0.957228     -0.274568      0.133723
O      11.31107      1.85108      2.66674         0.131547     -0.322832     -0.300732
O      11.30392      1.97380     15.40066         0.343053     -0.027458     -0.102275
O      11.22866     13.34522      2.75113         0.553956     -0.875371     -0.731521
O      11.24900     13.13724     15.47108         1.861500      0.238877     -0.101690
O      11.45171      1.81255      6.74109         0.037758      0.233090      0.671956
O      11.41414     13.33474      6.97607        -0.370704     -0.000423     -0.226087
O      11.34255      1.84061     11.09144         0.672015      0.680288     -0.357120
O      11.37291     13.16399     11.12482        -0.070959      0.380994     -0.663072
O      11.45622      5.71361      2.70959        -1.792819     -0.465871     -0.101299
O      11.39098      5.66317     15.38534         0.371347      0.195538     -0.316031
O      11.51956      5.80993      6.88506        -0.737435      0.025675      0.286301
O      11.44864      5.65886     10.92590        -0.003400     -0.045604      0.177147
O      11.38594      9.36122      2.56842        -0.924988      0.024304      0.134635
O      11.37949      9.55066     15.35445         0.169679      0.000040     -0.421169
O      11.48280      9.40146      6.72277        -0.248429     -0.013862      0.399575
O      11.48012      9.57195     11.09282        -0.261787     -0.093401      0.269128
O       1.93891      3.68001      2.58941         0.241044      0.189065     -0.142244
O       1.74314      3.69505     15.35938         0.568562      1.308565     -0.484545
O       1.87634     15.05843      2.59513         0.381117      0.194273      0.210355
O       1.86331      0.05210     15.35850        -0.378274     -1.063254      0.065278
O      13.33061      3.69155      2.66136        -0.205396      0.769180     -0.124557
O      13.22358      3.83418     15.38791         0.472379     -0.094361     -0.586147
O      13.25218     15.09356      2.64449        -0.053345      0.314389     -0.239750
O      13.06958      0.02649     15.46506        -0.065222     -0.770065     -0.176115
O       1.83022      3.87098      6.81648         0.791816     -0.955859     -0.210796
O       1.95762     15.13583      6.66389        -0.140267      0.444667      0.265869
O      13.38463      3.80094      6.73691        -0.188691     -0.132845      0.145230
O      13.32489      0.01796      6.86726         0.075262     -0.258280     -0.198143
O       1.91518      3.77353     11.12045        -0.157997      0.056050      0.132632
O       1.93485     15.16211     11.03175        -0.291442      1.251490     -0.010426
O      13.35899      3.74175     11.21706        -0.642566      1.046073     -0.766514
O      13.20832     15.17869     11.09010         0.052816     -0.120392     -0.719104
O       1.94700      7.43934      2.63054         0.080508      1.183985     -0.226003
O       1.96536      7.60204     15.27913        -0.403935     -0.575869     -0.432535
O      13.25767      7.52423      2.69836         0.901054      0.252665     -0.176328
O      13.22709      7.65719     15.45834         0.047966     -0.107324     -0.694099
O       1.93269      7.62056      6.68945         0.047592      0.253080      0.598548
O      13.48662      7.63650      6.92063        -0.069296     -0.347943     -0.141496
O       1.89920      7.61090     11.12953         0.020139      0.621076     -0.067611
O      13.34571      7.65411     11.07517        -0.557994     -1.428111     -0.233260
O       1.89654     11.34564      2.48844        -0.019142     -1.831877      0.042821
O       1.69993     11.42791     15.42305         0.328137      0.494365     -0.552969
O      13.14198     11.33222      2.73251         0.505602      0.330184     -0.443942
O      13.25019     11.42986     15.47531        -0.103753     -0.668636     -0.373010
O       1.96265     11.40834      6.77327         0.053053     -0.228111     -0.072310
O      13.32330     11.38975      6.75772        -0.414722     -0.204865     -0.161175
O       1.80461     11.45409     11.08642         0.315924     -0.350522      0.056848
O      13.37449     11.38662     11.12013        -0.061020      1.063435     -0.138144
O       5.58265      3.76025      2.44889         0.403200     -1.733129      0.253876
O       5.59662      3.76480     15.43909         0.720374     -0.349292     -0.782382
O       5.77847     15.07644      2.40860         0.187854      0.261475      0.290131
O       5.76817     15.17702     15.21641        -0.215266      0.325235      0.425283
O       5.61828      3.73753      7.05927         0.157224     -0.090290     -0.500196
O       5.72643     15.09510      6.75635         0.422369      1.738875      0.270043
O       5.73600      3.83032     11.04939        -0.361896     -0.582807      0.329147
O       5.66917     15.18108     11.05328         0.250335      0.108509     -0.065742
O       5.71262      7.47319      2.37248        -0.037814      0.023400      0.630672
O       5.39921      7.52259     15.31225         0.654647      0.775753     -0.370684
O       5.71827      7.52240      6.90205        -0.133240      0.786859     -0.240822
O       5.62209      7.60419     11.14795        -0.013212     -0.140536     -0.101202
O       5.70172     11.26937      2.41409         0.207422      0.049662     -0.368040
O       5.69508     11.34877     15.35140         0.023545     -0.188957     -0.602356
O       5.79440     11.40120      6.94945        -0.182342     -1.434527     -0.315868
O       5.77349     11.48580     11.13713        -1.039487     -1.379179     -0.170375
O       9.62043      3.79078      2.93637        -1.132052      0.453216     -1.712306
O       9.49122      3.82964     15.41170        -0.318132     -0.410962     -0.829240
O       9.42109     15.11462      2.61850        -0.714996      1.306870     -0.216496
O       9.55040      0.04326     15.47085        -0.515170     -0.239795     -0.497900
O       9.68162      3.80207      6.88131        -0.308482      0.332178     -0.377975
O       9.46351      0.00946      6.94983        -0.043455     -0.127624      0.335783
O       9.45564      3.86644     11.07620         0.295255     -0.127155     -0.023522
O       9.46947     15.15150     11.10595        -0.140299      0.176718     -0.713463
O       9.42290      7.58437      2.66748         0.222794     -1.879294     -0.311040
O       9.62278      7.50895     15.41188        -0.498292      0.875374     -0.194352
O       9.52145      7.61171      7.00213         0.055680     -0.674987     -0.057935
O       9.59914      7.64372     11.11541        -0.069300     -1.023344     -0.428964
O       9.52226     11.29724      2.58057        -0.208150      0.371069     -0.246018
O       9.37174     11.31618     15.33823        -0.338222     -0.493452     -0.143264
O       9.56231     11.33842      6.75211         0.078729     -0.426106      0.334095
O       9.42365     11.36597     11.33352         0.584887      1.056519     -0.756929
