  # total energy = -7876.62502822 
CRSYTAL
PRIMVEC
    15.2000000000000000    0.0000000000000000    0.0000000000000000
     0.0000000000000000   15.2000000000000000    0.0000000000000000
     0.0000000000000000    0.0000000000000000    17.000000000000000
PRESSURE
7.71278 8.09339 5.27623 0.01276 -0.013582 0.067869
PRIMCOORD
320 1
Pb       3.68780      3.91243      4.29187        -0.029280     -0.199901      0.003058
Pb       3.86229      3.93431      0.04992        -0.088073     -0.844583     -0.440116
Pb       3.69840      0.13164      4.38980        -0.502813     -0.560961     -1.354470
Pb       3.99348     15.16871      0.04831        -1.441418      0.046257     -0.068072
Pb      15.18913      4.12927      4.32363        -0.238749     -1.505250      0.176344
Pb      15.14247      3.73353     16.99199        -0.428196     -0.201657     -0.731513
Pb       0.08461      0.18410      4.21009        -0.214961     -0.657650      0.011330
Pb       0.03848     15.13894     16.91938         0.280487      0.557798     -0.078741
Pb       4.03430      3.56919      8.48377        -0.570349      0.895768      0.098382
Pb       3.80961     15.08420      8.56185        -0.222858      0.537751     -0.056723
Pb      15.15654      3.76755      8.45187         0.454243     -0.158385     -0.263056
Pb       0.00926     15.11709      8.70658        -0.385014     -0.198021     -0.598307
Pb       3.76960      3.79925     12.76824        -0.023001     -0.138556     -0.651585
Pb       3.76482     15.08594     12.80358         0.045779      0.575858     -0.757028
Pb       0.10205      3.60651     12.76534        -0.198294      0.550162      0.058363
Pb       0.02355     15.12938     12.76076         0.324268      0.286236     -0.263106
Pb       3.73725      7.54202      4.28256         0.334773      0.874504      0.317707
Pb       3.90115      7.65278      0.25123        -0.382744      0.466837     -0.954739
Pb      15.15206      7.59025      4.11439        -0.293339      0.543418      0.801650
Pb       0.10172      7.57059     16.89891        -0.586537      0.369346      0.287201
Pb       3.79391      7.56172      8.41247         0.491616      0.073373      0.158938
Pb      15.02338      7.50118      8.45614         0.582969      0.606156     -0.131316
Pb       3.67707      7.51807     12.70585         0.554870     -0.303907      0.003802
Pb      15.10043      7.48766     12.69047         0.142890     -0.181372     -0.341366
Pb       3.56164     11.55976      4.28146         0.411442     -0.955831      0.103573
Pb       3.95615     11.38204      0.15250        -0.570136     -0.021212     -0.758116
Pb      14.97956     11.52680      4.27584         1.088891      0.117781      0.078751
Pb       0.05686     11.45743     16.97057         0.118899     -0.556499     -0.103267
Pb       3.84281     11.42652      8.46010        -0.351672     -0.345217     -0.174722
Pb      15.02774     11.24947      8.60439         0.387426      0.879501     -0.434829
Pb       3.60098     11.20536     12.88684         0.533296      0.534674     -0.516576
Pb      15.11706     11.27008     12.64372         0.414100      0.390118      0.125904
Pb       7.49259      3.67756      4.11124         0.736259      0.671351      0.594592
Pb       7.62982      3.84980      0.03231        -0.169460     -0.125185     -0.903681
Pb       7.51004     15.17649      4.28681         0.533389     -0.050497     -0.478362
Pb       7.59163     15.09079      0.07378         0.221678      0.270233     -0.143282
Pb       7.80887      3.79027      8.23547        -1.006038      0.205576      0.969894
Pb       7.54944     15.11397      8.41278         0.146844      0.773408     -0.411637
Pb       7.44925      3.73967     12.69314         0.554160      0.746740      0.274600
Pb       7.63887      0.19397     12.67202        -0.727530     -1.230855      0.531045
Pb       7.68721      7.49437      4.41612        -0.436586      0.338991     -0.393091
Pb       7.48656      7.63316     16.94603         0.479968     -0.135922     -0.039053
Pb       7.64147      7.63664      8.42860        -0.754979     -0.570607     -0.064965
Pb       7.58503      7.59980     12.80842        -0.178111     -0.314951     -0.765218
Pb       7.52403     11.22282      4.14171        -0.054929      0.209143      0.990302
Pb       7.73687     11.44609      0.00488        -0.393159     -0.275298     -0.294525
Pb       7.45976     11.47416      8.34296         0.700526     -0.594546      0.656423
Pb       7.50052     11.28707     12.70432        -0.021289      0.441137     -0.541715
Pb      11.42220      3.82874      4.07619         0.115754      0.254327      0.656347
Pb      11.45417      3.80384      0.03373         0.405578     -0.314526     -0.819408
Pb      11.46095     15.17195      4.27019        -0.355053      0.139746     -0.635279
Pb      11.41223     15.02377     16.93791        -0.029057      0.567710      0.047886
Pb      11.42440      3.68684      8.43476        -0.344228      0.666589      0.000969
Pb      11.27219     15.18139      8.51736         0.434340     -0.518709     -0.017122
Pb      11.36116      3.75970     12.77393         0.042583      0.269412     -0.514975
Pb      11.37200      0.07240     12.80369         0.175005      0.019500     -0.747159
Pb      11.52391      7.58569      4.12073        -0.573879     -0.041598     -0.013925
Pb      11.28093      7.51252     16.90863         0.123430      0.357621      0.735624
Pb      11.36615      7.57948      8.33569        -0.025095     -0.511435      0.317739
Pb      11.26553      7.48831     12.58953         0.692229      0.404008      0.732605
Pb      11.45932     11.35109      4.22581        -1.201494      0.189180     -0.260488
Pb      11.46608     11.41024     16.90425        -0.726502      0.096247      0.253914
Pb      11.36064     11.44734      8.65587        -0.111556      0.455050     -0.672425
Pb      11.33633     11.24595     12.83768        -0.419728     -0.174750     -1.082865
Ti       1.89274      2.00330      2.30483         0.105299     -1.276429     -0.836829
Ti       1.97780      1.91118     15.14339        -1.011726     -1.419000     -0.654567
Ti       1.86504     13.31126      2.23651        -0.369206      1.013494      2.166859
Ti       1.87073     13.19479     14.87417         0.950117      0.956299      0.719557
Ti      13.32044      1.86181      2.22315        -0.373681      0.981851     -0.135352
Ti      13.26422      1.85860     14.90227         0.575012      0.979515      2.487734
Ti      13.28277     13.32575      2.20313        -0.114735      0.684780     -0.657775
Ti      13.29865     13.24206     14.88489         0.052393      1.489470      0.516086
Ti       1.84970      1.84761      6.53596        -0.242490      1.264828      0.603507
Ti       1.77725     13.28442      6.62009        -0.049132     -0.137335      0.267210
Ti      13.26776      1.83220      6.46093         0.253679      0.809419      1.179896
Ti      13.27894     13.39523      6.45962        -0.485453     -0.253216      1.380697
Ti       1.84901      1.97260     10.60037         1.266311     -0.915136      1.354512
Ti       1.95312     13.24660     10.78190        -0.486634      0.939391      1.291207
Ti      13.27240      1.90807     10.59493        -0.176754     -0.273362      2.545285
Ti      13.22812     13.36095     10.83024         0.407871      0.019640     -1.339852
Ti       1.90061      5.76056      2.20709        -0.597291     -0.136327      1.093294
Ti       1.92720      5.63777     15.01337        -0.638954      0.579386     -0.104825
Ti      13.33752      5.71607      2.07302        -1.204372      0.147358      0.615867
Ti      13.32019      5.78794     14.92243         0.274226     -2.688749      1.102075
Ti       1.95923      5.72966      6.53472         0.148395     -1.099338      0.623706
Ti      13.36296      5.67414      6.52700        -1.986613      0.045448      0.216071
Ti       1.97552      5.71907     10.60371         0.116792     -0.757847      0.695750
Ti      13.35135      5.64053     10.65327        -0.319840     -0.078058      0.463478
Ti       1.75080      9.51360      2.38179         1.379191      1.020505     -0.499121
Ti       1.87112      9.40370     15.03561         0.167481      1.654136      0.127558
Ti      13.22541      9.56849      2.18731        -0.868314     -0.713489     -0.488487
Ti      13.19567      9.43989     14.98143         0.721998      0.451674      0.429799
Ti       1.75202      9.47189      6.52919         0.614253      0.676052     -1.094688
Ti      13.17352      9.60905      6.48905         0.793382     -0.495445      1.500084
Ti       1.88315      9.44421     10.69233         0.007722      0.833917      0.695773
Ti      13.25445      9.49198     10.66988        -0.582659     -1.113550      1.755686
Ti       5.71529      1.88582      2.29290        -0.830565     -0.957254     -0.549734
Ti       5.73256      1.88735     15.05485        -0.178680      0.301078     -0.279472
Ti       5.67037     13.29163      2.30609        -0.808442     -0.116399      0.289248
Ti       5.64439     13.27163     14.96373        -0.160576      0.072290      0.054402
Ti       5.61849      1.84961      6.32723         1.973176      0.459764      2.722225
Ti       5.61875     13.33465      6.36765        -0.145660     -0.577986      0.502312
Ti       5.72201      1.91384     10.68458        -1.683508     -0.373597     -0.095537
Ti       5.70872     13.33943     10.61824        -0.280837     -1.112148      1.979375
Ti       5.64991      5.67994      2.17733         0.179190      0.800241      1.461975
Ti       5.69610      5.68851     14.87682        -0.262466     -0.214573      0.303819
Ti       5.71408      5.60355      6.43812         0.548135      1.197953      0.377905
Ti       5.77775      5.74137     10.67259        -0.220973     -0.708862     -0.142436
Ti       5.61957      9.44884      2.29881        -0.756004      0.469138      0.626875
Ti       5.64135      9.49814     14.96264        -0.087723      0.164376      1.052329
Ti       5.56315      9.42340      6.49872         0.188411     -0.469895      0.364730
Ti       5.64369      9.45866     10.73044         0.708775      0.024954     -0.504127
Ti       9.51920      1.90368      2.12792         0.918629     -0.790755      0.960704
Ti       9.45572      1.88963     15.03558         0.351029      0.469078      0.624461
Ti       9.41516     13.22210      2.30150         1.320823      0.859825      0.938018
Ti       9.41546     13.35560     14.74171         0.577826     -0.714724      3.009859
Ti       9.49540      1.84651      6.37645        -0.117809      0.356783     -0.044258
Ti       9.42459     13.29977      6.39103         0.983348     -0.078757      1.110288
Ti       9.45563      1.88072     10.68832         1.299126      1.324302     -0.165576
Ti       9.39474     13.28341     10.69047         0.650684     -0.806100     -0.073243
Ti       9.45007      5.68817      2.17206         0.608209      1.111815     -0.313530
Ti       9.47904      5.69900     15.00225        -0.261597     -0.142347      0.730140
Ti       9.55523      5.70269      6.31402         0.033311     -0.482722      1.639955
Ti       9.51263      5.63820     10.66740         0.426443     -0.393976      0.275942
Ti       9.37696      9.42792      2.23016         0.744334      0.139030      0.220942
Ti       9.41546      9.47470     14.97031        -0.494245      0.317101      1.073712
Ti       9.44805      9.52000      6.53752         0.254595     -0.014294     -1.196847
Ti       9.42125      9.41814     10.65973        -0.289117      1.101370      0.275781
O       1.87978      1.91098      0.54188         0.022670      0.322759     -0.806334
O       1.88020      1.93732     13.35511         0.193070      0.091896     -0.444276
O       1.86584     13.34962      0.55722        -0.193189     -0.498471     -2.408372
O       1.86166     13.19214     13.06332         0.385136      0.282899      0.802218
O      13.22013      1.93832      0.45915         0.147886      0.109846     -0.095716
O      13.25536      1.80458     13.17682         0.117989      0.485073     -1.181880
O      13.22740     13.30162      0.38212         0.140490     -0.177603      0.358572
O      13.37812     13.38153     13.12577        -0.634042     -0.507862     -0.572057
O       1.87065      1.96326      4.73967         0.337359     -0.576141     -0.465416
O       1.77078     13.40404      4.86408         0.141919     -0.094791     -0.465469
O      13.17519      1.84044      4.73004         0.134350      0.089536     -1.169900
O      13.37036     13.47847      4.68950        -0.296433     -0.566562     -0.497047
O       1.96251      1.85885      8.86624        -0.260266      0.241816     -0.763603
O       1.95513     13.28525      9.03440         0.035230      0.026520     -1.345317
O      13.30312      1.81847      8.90085         0.228800      0.029097     -1.925619
O      13.21867     13.42603      8.99175         0.301613     -0.432104      0.943195
O       1.93535      5.95961      0.48457         0.043587     -0.737393     -1.160594
O       1.99576      5.64962     13.24791        -0.385691      0.063736     -0.761167
O      13.35156      5.66752      0.33216        -0.072222      0.086649     -0.264610
O      13.50539      5.53554     13.20076        -0.426784      0.663027     -0.943303
O       1.93312      5.70031      4.73582        -0.529469     -0.009364     -0.514159
O      13.26485      5.66512      4.77481         0.308977      0.068070     -0.743080
O       1.97035      5.63403      8.85898        -0.184256      0.379516     -0.631195
O      13.37652      5.67432      8.83243        -0.212390      0.265710      0.280431
O       1.80729      9.61185      0.58838         0.358868     -0.319282      0.122402
O       1.83810      9.57395     13.25256         0.258485     -0.356058     -0.706321
O      13.18496      9.66123      0.45230         0.024061     -0.036420     -1.036016
O      13.17490      9.43548     13.21906         0.203171      0.332052     -0.161233
O       1.81450      9.51498      4.71777        -0.552729     -0.109406      0.354069
O      13.31187      9.64424      4.76662        -0.411078     -0.096232     -1.959800
O       1.83632      9.42537      8.97164         0.426522      0.267602     -1.067029
O      13.21388      9.55864      8.93697         0.074451     -0.387902     -1.001703
O       5.74893      1.89381      0.51336        -0.317552     -0.068312     -0.106718
O       5.81404      1.88998     13.25581        -0.166649      0.031768     -0.259465
O       5.64988     13.43679      0.50289         0.355289     -0.590736     -0.006748
O       5.66103     13.20117     13.22215        -0.006481      0.161519     -0.275930
O       5.77658      1.94160      4.60399        -0.316551     -0.339565     -1.390428
O       5.58245     13.35482      4.61945         0.013194     -0.143386     -0.366626
O       5.72465      1.82359      8.90405         0.039218      0.112818      0.349651
O       5.67489     13.37693      8.86434         0.066542     -0.216313     -1.034775
O       5.58295      5.74941      0.39404         0.050563     -0.339873      0.082784
O       5.63816      5.60023     13.11124         0.311704      0.094824     -0.286047
O       5.69949      5.67443      4.66319         0.066298     -0.169134     -0.594425
O       5.79262      5.57978      8.90557        -0.421622      0.557906     -0.243828
O       5.64455      9.51708      0.50614        -0.180851     -0.394261     -0.217512
O       5.79800      9.64069     13.20919        -0.576029     -0.427397     -0.210225
O       5.56330      9.43631      4.77902         0.213885     -0.010696     -1.105139
O       5.66426      9.28209      8.95601        -0.223670      0.297599     -0.630842
O       9.60417      1.88656      0.36924        -0.285639      0.772270     -0.730049
O       9.37079      1.75567     13.23981         0.257646      0.655088     -0.222250
O       9.45852     13.13749      0.57015        -0.033747      0.027721     -1.287295
O       9.46484     13.44844     13.04351         0.012374     -0.615573     -1.212919
O       9.57189      1.83321      4.60859        -0.217718     -0.265901      0.101416
O       9.51983     13.32685      4.65865        -0.182276      0.411871     -0.898350
O       9.39467      2.09450      8.92529         0.378710     -0.952570      0.421239
O       9.42550     13.20794      8.85701        -0.108640      0.281222      1.095600
O       9.45476      5.70600      0.35304        -0.048202     -0.293280      0.509569
O       9.49687      5.75030     13.27385        -0.124330      0.282814     -1.234523
O       9.63965      5.97334      4.59013        -0.504878     -0.576446     -0.834355
O       9.60839      5.47640      8.91989        -0.227593      0.582580     -0.066718
O       9.44704      9.54159      0.46264        -0.439943      0.105610      0.039697
O       9.42594      9.42532     13.22495        -0.044371      0.131885     -1.185163
O       9.57771      9.34303      4.71616        -0.311156      0.212662      1.025111
O       9.40501      9.61622      8.89481         0.033587     -0.518648     -0.363034
O       3.76210      1.91431      2.61185         0.990433     -0.253609      0.482252
O       3.83093      1.88662     15.41305         0.611461      0.887677      0.211847
O       3.72278     13.40598      2.56302         0.791742     -0.953898      0.580986
O       3.72620     13.24704     15.38880         0.663711      0.296025     -0.267908
O      15.19043      1.90603      2.57892        -0.352761      0.461242      0.235761
O      15.16972      1.89826     15.34792        -0.141247     -0.279425      0.327184
O      15.14897     13.39866      2.56998        -0.416124     -0.345833      0.135359
O       0.04033     13.40783     15.26416        -1.020639     -0.448496      0.131471
O       3.86166      1.83229      6.79701        -0.739927      0.056613     -0.199916
O       3.79757     13.35197      6.83986        -0.386400     -0.596895      0.212013
O       0.01226      1.90999      6.80919        -0.104550     -0.281068      0.167839
O      15.09949     13.17095      7.03506         0.988096      0.522989     -0.202877
O       3.71521      1.86237     11.01549         0.956904      0.386092      0.259260
O       3.86595     13.28662     11.09313        -0.890810     -0.149638      0.046945
O      15.19739      1.94426     10.99699        -0.767583     -0.055518      0.135854
O       0.02275     13.27520     11.12186        -1.062310      0.256624     -0.269569
O       3.72482      5.77292      2.58016         0.808082     -0.745464     -0.065341
O       3.77169      5.51367     15.28333         0.907582      0.323751      0.489087
O      15.15173      5.69678      2.68098         1.452480      0.687248     -0.623352
O       0.01326      5.72924     15.34653         0.269099      0.732399      0.181783
O       3.82612      5.60365      6.60557         0.001671      0.482234      0.934233
O       0.01374      5.68816      6.75627         0.229506     -0.152766      0.388950
O       3.90155      5.60739     11.05541        -1.996346      0.515287      0.040570
O       0.04047      5.71191     10.99773        -0.180297      0.272511      0.003524
O       3.72373      9.53859      2.72830        -0.445320      0.364091     -0.444451
O       3.75621      9.45448     15.49381         0.896695      0.481352     -0.383650
O      15.04485      9.46628      2.41398         1.350968      0.177575      1.168249
O       0.02929      9.49264     15.37187        -1.769732     -0.169163      0.112704
O       3.66823      9.33645      6.77548         0.821686      0.581535      0.745658
O      15.09740      9.46441      6.84332        -0.207388      0.489027      0.623925
O       3.84875      9.45831     11.23761        -2.026149      0.338434     -0.241151
O      15.16650      9.41898     10.92374        -0.081264      0.175562      0.663842
O       7.65826      1.84394      2.61868        -0.921571      0.321243     -0.106081
O       7.55955      1.81743     15.61246         1.113145     -0.044964     -0.701503
O       7.54630     13.18917      2.72343         0.066642      0.842992     -0.298254
O       7.62520     13.31165     15.44069        -0.286239      0.225087     -0.684046
O       7.64791      1.80424      6.77127        -0.730862      0.143764     -0.342741
O       7.45789     13.34503      6.69442         1.513028     -0.244883      0.321644
O       7.58208      1.90827     11.13470         0.081036     -0.079756     -0.432357
O       7.55298     13.29094     11.05791         0.255073      0.375307     -0.149647
O       7.48891      5.77790      2.50951         0.402457     -0.167484      0.031009
O       7.52695      5.67600     15.29010         0.939721      0.680313      0.428358
O       7.64414      5.75389      6.73996         0.172206     -0.251361     -0.260849
O       7.66094      5.77177     11.01077        -0.358065     -0.293518      0.505905
O       7.45626      9.26742      2.76447         1.015525      0.744429     -0.443197
O       7.49564      9.51453     15.48184         0.017857     -0.182782     -0.539389
O       7.57674      9.41503      6.72303         0.052397     -0.034515      0.455409
O       7.54439      9.43786     11.14151         0.440975     -0.623489      0.133695
O      11.42714      2.04714      2.65224        -0.341431     -0.505037     -0.722130
O      11.37544      2.04741     15.31959        -0.199891     -0.254348     -0.277882
O      11.35363     13.25453      2.59849         0.294657      0.043611      0.220154
O      11.36557     13.25244     15.25369        -0.266368     -0.357457     -0.454076
O      11.35752      1.82510      6.99518         0.370599     -0.006161     -0.868661
O      11.39952     13.39418      6.82116        -0.489447     -0.074220     -0.183920
O      11.39934      1.98367     11.04152        -0.912104     -0.464958      0.240374
O      11.37269     13.29799     10.98385        -0.986985     -0.690763      0.632570
O      11.37579      5.71731      2.50190         0.282140     -0.031949     -0.285958
O      11.42217      5.73356     15.30573        -0.595691     -0.139297     -0.007244
O      11.36761      5.57882      6.83854         0.795020      0.586516     -0.019961
O      11.44844      5.70544     11.21397        -0.141904     -0.510710     -0.656227
O      11.27887      9.47492      2.57488         1.292385      0.510375      0.218359
O      11.26976      9.48100     15.36771         1.790114      0.452300     -0.317521
O      11.35638      9.52925      6.99729        -0.602246      0.025733     -0.389767
O      11.31127      9.39186     11.05910         0.681533      0.969058      0.085691
O       1.99753      3.89272      2.59453        -0.740237      0.054938     -0.023165
O       1.78481      3.80120     15.32448         0.348766     -0.010780      0.898652
O       1.86125      0.02585      2.64408         0.125387      0.409741      0.545633
O       1.93943     15.17093     15.39953        -0.084549     -0.043784     -0.234761
O      13.34397      3.92739      2.59594        -0.169482     -1.556742     -0.015896
O      13.39949      3.85026     15.35738        -0.576773     -0.575342     -0.006658
O      13.24185      0.01368      2.51186        -0.328304      0.163831      0.224365
O      13.22670     15.19604     15.32093        -0.142041     -0.328604     -0.064295
O       1.98352      3.74664      6.78670        -0.330716      0.429670      0.337826
O       1.94530     15.16385      7.03416        -0.535655      0.077355     -0.503991
O      13.36737      3.73731      6.87640        -0.288496      0.309019     -0.134257
O      13.40404      0.02743      6.87518        -0.232866     -0.475326      0.094131
O       1.86086      3.87842     11.00188         0.167063     -0.963955      0.383689
O       1.76129      0.04866     11.17721         0.798266     -0.441741     -0.468054
O      13.22122      3.78462     10.91789         0.498197      0.337041      0.311964
O      13.15362      0.04199     11.07474         0.821259     -0.355669      0.225534
O       1.89723      7.64297      2.74816        -0.584888     -0.475853     -0.536497
O       1.94707      7.63179     15.33886        -0.060828     -1.793371      0.196680
O      13.31928      7.59382      2.40784        -0.288766      0.580296      0.647932
O      13.22560      7.61359     15.37769         0.446939      0.826089     -0.149386
O       1.83661      7.60441      6.90099        -0.129878     -0.997961     -0.016291
O      13.25288      7.64322      6.69698        -0.243177     -0.629213      0.843332
O       1.90309      7.61904     11.09421         0.303899     -0.936664      0.161906
O      13.27891      7.53784     11.15292         0.223375      0.487092     -0.485718
O       1.74966     11.44445      2.83131        -0.038682     -0.170482     -0.622601
O       1.85888     11.38622     15.35650        -0.010453      0.284189      0.065786
O      13.29120     11.47587      2.58614        -0.193431     -0.882987      0.359231
O      13.37094     11.44224     15.23361        -0.424691     -1.363322      0.110691
O       1.89655     11.38092      6.87502         0.212644     -0.057535      0.308533
O      13.16434     11.47335      6.91855         0.314709     -0.462208     -0.197114
O       1.79485     11.40818     11.10480         0.694262     -1.592192     -0.078419
O      13.30181     11.33470     11.04884        -0.475583      0.332057      0.260032
O       5.67139      3.73229      2.55070        -0.004396      1.698671     -0.038425
O       5.87210      3.81009     15.23997        -0.757087     -0.740113      0.807022
O       5.65629     15.15099      2.64310         0.477591      1.049814      0.234407
O       5.63073     15.19930     15.30476         0.319603     -0.561370      0.245126
O       5.78693      3.76276      6.79876        -0.312880     -1.035332     -0.339168
O       5.74234      0.01684      6.79243        -0.323476     -0.376550     -0.418105
O       5.67773      3.78199     10.99625         0.380507     -0.620986      0.437461
O       5.59529     15.17861     11.06414         0.679887      0.611520      0.080415
O       5.41054      7.60031      2.56342         0.705019     -1.087550     -0.427248
O       5.69884      7.55002     15.20259        -0.378415      1.016246      0.328051
O       5.68961      7.51667      6.90730        -0.078956     -0.012298     -0.156802
O       5.60910      7.54624     11.17153         0.438016      0.295366      0.143004
O       5.66443     11.36277      2.56625        -0.097673      0.469048      0.152499
O       5.59291     11.42764     15.37875         0.440029     -0.685708      0.231334
O       5.70479     11.29116      6.88814        -0.914939      1.323911     -0.380672
O       5.71896     11.31398     10.80292         0.143508      1.458575      0.458486
O       9.44487      3.86815      2.57680        -0.317615     -0.565394     -0.114535
O       9.40211      3.84410     15.17002        -0.076925     -1.133591      0.754492
O       9.52306      0.06099      2.26970        -0.108474     -1.300411      1.028061
O       9.62404      0.00016     15.21889        -0.551938     -0.795390      0.372185
O       9.49167      3.77684      6.64862         0.090891     -0.082815     -0.291022
O       9.48592     15.16211      6.90739        -0.311848      0.097125     -0.330348
O       9.57751      3.81301     11.12100        -0.662575     -0.683067      0.481138
O       9.54492      0.02812     11.03094        -0.443866     -0.428827     -0.326413
O       9.50077      7.58320      2.48707        -0.275547     -0.208066      0.107600
O       9.41869      7.64380     15.45287        -0.281193     -0.750447     -0.250813
O       9.48882      7.53956      6.91302         0.518832      0.715003     -0.113859
O       9.54162      7.56318     11.04528        -0.534576     -0.119003     -0.175433
O       9.40895     11.34023      2.72903        -0.141042     -0.389767     -0.283047
O       9.37570     11.33511     15.28643         0.367694      1.567855     -0.451670
O       9.40626     11.44918      6.73119         0.175921     -0.662647      0.103013
O       9.34216     11.33129     11.09523         0.970264      0.760548      0.162070
