  # total energy = -7863.67167427 
CRSYTAL
PRIMVEC
    15.010000000000000    0.0000000000000000    0.0000000000000000
     0.0000000000000000   15.010000000000000    0.0000000000000000
     0.0000000000000000    0.0000000000000000    16.400000000000000
PRESSURE
17.1133 17.2555 8.53622 -0.113567 -0.162352 0.067453
PRIMCOORD
320 1
Pb       3.65471      3.62783      4.09023         0.185566      0.290333     -0.249654
Pb       3.62178      3.71636     16.38146         0.850319      0.318636     -0.461468
Pb       3.79773     14.92680      4.15200         0.016597     -0.350983     -0.341738
Pb       3.84661     14.98659      0.10486        -0.307621     -0.466658     -0.568534
Pb      14.97163      3.81957      4.19376        -0.165083      0.207620     -0.170693
Pb      14.89580      3.65198      0.15804         0.125928      0.242921     -0.789975
Pb      14.88268      0.02032      4.27120         0.818189      0.029364      0.121559
Pb       0.06274     15.00378      0.14378        -0.278251     -0.287889     -1.182403
Pb       3.52559      3.71424      8.24435         0.608721      0.534074     -0.287181
Pb       3.72196      0.19171      8.25167        -0.208601     -0.826250     -0.845034
Pb      14.81499      3.72807      8.25667         0.249554     -0.149835      0.025166
Pb      14.89354      0.02925      8.22022        -0.047159      0.159342     -0.004275
Pb       3.75385      3.64008     12.41605        -0.389763      0.769311      0.096059
Pb       3.63325     14.99097     12.30982         0.502861     -0.693469      0.032667
Pb      14.89153      3.79905     12.35685         0.017389     -0.324968     -0.466608
Pb      14.97348     14.99634     12.33072        -0.360667     -0.061734     -0.029383
Pb       3.89320      7.55166      4.19651         0.128483     -0.515176     -0.156940
Pb       3.76162      7.58731      0.03600         0.586682     -0.150712     -0.763525
Pb       0.18551      7.54603      4.18651        -0.646164     -0.736153     -0.455884
Pb       0.06605      7.40884      0.08832        -0.334645      0.714111     -0.858782
Pb       3.71299      7.53528      8.36022         0.578868     -0.504906     -0.857700
Pb       0.06230      7.54946      8.28521        -0.068748     -0.586735      0.135908
Pb       3.64012      7.34998     12.36141         0.583057      0.553710      0.041735
Pb      14.89428      7.50371     12.29215         0.449439      0.161163      0.330461
Pb       3.90486     11.04595      4.16318        -0.395280      0.492194      0.027054
Pb       3.76814     11.23051      0.18652         0.045625      0.298714     -1.135741
Pb       0.12026     11.13504      4.18415        -0.020187      0.427218     -0.328834
Pb       0.10163     11.25157      0.16737        -0.077329     -0.214817     -1.105219
Pb       3.71622     11.29929      8.26020         0.006295     -0.162162     -0.462345
Pb       0.08033     11.28002      8.18166         0.148692      0.309173     -0.138361
Pb       3.72142     11.14892     12.32366         0.324054      0.557564     -0.333932
Pb       0.00896     11.24194     12.29724         0.220813      0.133552      0.095192
Pb       7.40314      3.89977      4.05896         0.438956     -0.656831     -0.029490
Pb       7.43956      3.69450      0.10697         0.372234     -0.212350     -1.203101
Pb       7.53244     14.90789      4.08858        -0.481082      0.278509     -0.067964
Pb       7.55975     14.85652      0.04428        -0.195685      1.074217      0.019645
Pb       7.41274      3.78418      8.30187        -0.139839      0.101570     -0.372481
Pb       7.39294      0.07092      8.27718         0.082143     -0.092675     -0.836464
Pb       7.34414      3.78345     12.40770         0.195746     -0.226856     -0.007482
Pb       7.42089      0.03799     12.22354        -0.164586     -0.378488      0.230801
Pb       7.66780      7.42237      4.13287        -0.852265      0.545741      0.492555
Pb       7.51554      7.39190     16.37159        -0.386733      0.589240     -0.427427
Pb       7.60988      7.39103      8.24616        -0.790004      0.446353     -0.509629
Pb       7.45682      7.59789     12.23480        -0.801914     -0.017037      0.793524
Pb       7.58746     11.06853      4.17004        -0.574864      0.167218      0.378945
Pb       7.46510     11.26220      0.00605        -0.240318     -0.281052     -0.891025
Pb       7.61045     11.28896      8.19691        -0.193921     -0.428342     -0.017961
Pb       7.49204     11.35306     12.21494        -0.510704     -0.447707      0.338339
Pb      11.25396      3.77922      4.18960        -0.195013      0.509540     -0.099001
Pb      11.24977      3.77313      0.11374        -0.114585     -0.530089     -0.891162
Pb      11.23151     14.89317      4.07343         0.005592      0.459615      0.273229
Pb      11.36179     14.96984      0.03326        -0.718784      0.522396     -0.516465
Pb      11.18866      3.67983      8.39716        -0.066385     -0.116527     -0.227377
Pb      11.18684      0.00494      8.24372         0.155116      0.392434     -0.365263
Pb      11.11026      3.75126     12.34516         0.475665     -0.323526     -0.374337
Pb      11.17123     14.88078     12.42835         0.363574      0.307220     -0.333079
Pb      11.37046      7.50449      4.14763        -0.371379     -0.206966     -0.120494
Pb      11.22886      7.39812      0.03340        -0.027040      0.844221     -0.524142
Pb      11.29471      7.45357      8.26283        -0.402968      0.282029      0.378412
Pb      11.02381      7.47468     12.33441         1.579225      0.421947     -0.033553
Pb      11.23475     11.15413      4.11324         0.359585      0.067353     -0.226522
Pb      11.20197     11.28511      0.03770         0.206884     -0.550432     -0.664001
Pb      11.33986     11.40833      8.24483        -0.415222     -0.409541     -0.055820
Pb      11.12884     11.22944     12.33830         0.560181     -0.057332      0.054677
Ti       1.90908      1.86102      2.00983        -0.562349      0.327230      0.286948
Ti       1.89358      1.82677     14.40830        -0.809073     -0.633213     -0.444659
Ti       1.85320     13.14741      2.05985         1.692572     -0.748170      0.018315
Ti       1.94301     13.09931     14.27122        -1.262977     -0.542033      1.731641
Ti      13.10703      1.86062      2.15268         0.037905      0.327973     -0.424660
Ti      13.11392      1.81426     14.40499        -0.230087     -0.336833     -0.861337
Ti      13.20839     13.09090      2.02168        -0.624832     -0.458358      0.413969
Ti      13.15327     13.00374     14.35052         0.571807      1.487014     -0.264335
Ti       1.79025      1.90713      6.19001        -0.694596     -0.796169     -0.183356
Ti       1.95456     13.16219      6.15731        -0.864351     -0.637747      0.047745
Ti      13.02260      1.95290      6.18228        -0.254388     -0.198615      0.622137
Ti      13.18581     13.10723      6.12862        -0.344692      0.649529      0.870493
Ti       1.78749      1.94263     10.33773        -1.616099      0.439991      0.477723
Ti       1.81034     13.19935     10.21132         0.753497     -0.214344      0.212100
Ti      12.98448      1.76658     10.41474         1.562536      0.628721     -0.286093
Ti      13.10372     13.08593     10.24906         0.216030      1.480737      0.724463
Ti       1.91329      5.60690      1.97144        -0.344797     -0.227912      2.696423
Ti       1.82336      5.61511     14.41099         0.721527      0.734176     -0.887045
Ti      13.11459      5.64624      2.08346         0.239286     -0.567341      1.047173
Ti      13.11605      5.64628     14.40147         0.132611     -0.270000     -0.202735
Ti       1.89204      5.61003      6.15795        -0.082350     -0.006884      0.204725
Ti      13.14710      5.76101      6.29998         0.109807     -1.348288     -0.983017
Ti       1.77292      5.63848     10.24737         0.331231     -0.355359      0.289206
Ti      13.05431      5.59540     10.29630        -0.417938      0.345424      0.329791
Ti       1.84710      9.30749      2.00075         1.110607      0.439714      0.707323
Ti       1.91455      9.34774     14.37326        -0.476727      0.698959      0.210814
Ti      13.07067      9.31250      2.01375        -0.043678      0.407348      0.811696
Ti      13.15845      9.35340     14.33829        -0.628857     -0.228068      0.434246
Ti       1.91528      9.31091      6.17552         0.612967      0.738910      0.851665
Ti      13.11476      9.40223      6.19446         0.389834      0.293936      0.425653
Ti       1.89910      9.41389     10.18717         0.341931     -0.336468      1.439647
Ti      13.20013      9.40987     10.23755        -0.597925     -1.218029      2.323973
Ti       5.62991      1.85924      2.00811         0.281613     -0.497684      0.172955
Ti       5.62987      1.80829     14.39090         0.385272      1.056849      0.460453
Ti       5.67166     13.02864      2.09068        -1.193060      0.493000     -0.187324
Ti       5.60893     13.14989     14.37590        -0.682836     -2.066602     -0.366338
Ti       5.61982      1.89812      6.02693        -0.599439     -0.900148      1.559786
Ti       5.66014     13.08103      6.24976        -0.758151      0.368110     -0.448750
Ti       5.48051      1.87411     10.35290         1.254402     -0.353584     -0.128215
Ti       5.54069     13.08206     10.13470        -0.353448     -0.115366      1.041331
Ti       5.56978      5.59659      1.93575        -0.400243      0.970382      0.646371
Ti       5.64272      5.64378     14.34010        -0.368286      0.581876     -0.453460
Ti       5.61014      5.57259      6.08663        -0.299753      1.044991      1.911323
Ti       5.49853      5.58899     10.28056         0.612667      0.217530      0.297606
Ti       5.65984      9.31378      2.05971        -0.467793     -0.861472      0.834685
Ti       5.63300      9.40540     14.27797         0.623786     -0.358580      0.338962
Ti       5.70729      9.31701      6.37847         0.285159     -0.507938     -0.774295
Ti       5.71267      9.34130     10.24123        -0.817151      0.004707      0.184258
Ti       9.34579      1.86331      2.03355         0.737974     -0.497999     -0.292778
Ti       9.39237      1.91472     14.33025        -0.122576     -0.639501      0.488349
Ti       9.40161     13.13964      2.07130        -0.238733      0.099911     -0.120801
Ti       9.32691     13.11417     14.32218         0.450077      0.232605      0.314586
Ti       9.28163      1.96575      6.17933         0.321397     -0.968584      0.127755
Ti       9.42450     13.19694      6.15482        -0.724466      0.142270      0.480924
Ti       9.20103      1.82001     10.24206         1.851382      1.974063     -0.083608
Ti       9.30498     13.17979     10.19990         0.879137     -0.853237     -0.136900
Ti       9.32824      5.64246      1.99542        -0.110302     -0.314633      0.430470
Ti       9.38612      5.64021     14.29567        -0.420828     -0.693940      0.401874
Ti       9.39700      5.64567      6.24875        -1.026159      0.092823     -0.214217
Ti       9.23475      5.66938     10.35231         0.871585     -1.605024     -0.670519
Ti       9.30753      9.39727      2.00897         0.993924     -0.841815      0.005212
Ti       9.36502      9.39811     14.36444         0.198032     -0.082270      0.834318
Ti       9.44924      9.40370      6.27411        -1.348147     -0.765397      0.012923
Ti       9.40521      9.40215     10.26528         0.310164      0.026629     -0.849576
O       2.00678      1.87597      0.14448        -0.403920     -0.413184      0.471114
O       1.80297      1.72303     12.55880         0.423766      0.737049      0.316787
O       1.67328     13.02331      0.15614         0.678399      0.667790      1.132418
O       1.99040     13.03185     12.49588        -0.353290      0.301883     -1.467664
O      13.12049      1.85828      0.28931        -0.055364      0.181285      0.106047
O      12.90124      1.73262     12.49487         0.817763      0.149717      1.056691
O      13.16222     12.98834      0.19569         0.144454      0.618267      0.082312
O      13.05806     13.21525     12.51584         0.226340     -0.607020     -0.298584
O       1.72249      1.86935      4.34877         0.492780      0.165654     -0.406293
O       1.82438     13.19256      4.28301         0.006627     -0.150747      0.184732
O      13.09983      1.96868      4.33223        -0.278023     -0.582342     -0.688408
O      13.15459     13.02367      4.31666        -0.025551      0.315003     -0.876284
O       1.71761      2.03257      8.52251         0.388748     -0.410666     -0.671340
O       1.87262     13.14823      8.40991         0.086918     -0.247811     -0.065782
O      13.13303      1.90532      8.55092         0.075874      0.242736     -1.355263
O      13.11677     13.17797      8.42849        -0.181778     -0.550616     -0.686179
O       1.82126      5.51038      0.24618        -0.072955      0.485213     -2.168955
O       1.87410      5.80807     12.54992        -0.650762     -0.975843      0.520613
O      13.22399      5.62634      0.28432        -0.918353     -0.191161     -1.023171
O      13.15652      5.71832     12.60167         0.163211     -0.500152     -0.964702
O       1.91752      5.58396      4.31288        -0.215676     -0.091984     -0.460104
O      13.08780      5.65609      4.44871        -0.226396      0.306323     -0.308662
O       1.85336      5.54115      8.41171        -0.104756      0.416412      0.277633
O      13.16531      5.57103      8.46231        -0.633091      0.156880     -0.681588
O       1.80563      9.30668      0.20104         0.307468      0.362556     -0.004939
O       2.02403      9.44618     12.56254        -0.515986     -0.552312     -0.572672
O      12.95218      9.31925      0.26448         0.483281     -0.087969     -0.960786
O      13.10592      9.40699     12.54509         0.215752     -0.056280     -0.696188
O       1.90843      9.25479      4.33188        -0.126016      0.340275     -0.217146
O      13.03126      9.36949      4.39928         0.201370      0.046531     -0.848845
O       1.78574      9.31567      8.39504         0.002265      0.008438     -0.879828
O      13.12999      9.44201      8.51332         0.182810      0.028003     -1.963971
O       5.51419      1.90285      0.17018         0.016715     -0.170519      0.264346
O       5.65383      1.72126     12.55096        -0.449984      0.343766      0.048717
O       5.65911     12.98913      0.22979        -0.242825      0.152721      0.270186
O       5.64504     12.98556     12.57107        -0.040756      0.893999     -0.378734
O       5.61985      1.82458      4.27027         0.007397     -0.084268     -1.535654
O       5.55017     13.23656      4.39473         0.164029     -0.613801     -0.353416
O       5.71340      1.91671      8.53478        -0.629914      0.000367     -0.128171
O       5.46537     13.09372      8.32136         0.548249      0.130259      0.197790
O       5.58719      5.72716      0.14679        -0.010048     -0.445770     -0.567086
O       5.66219      5.72236     12.44813         0.030670     -0.551923      0.695979
O       5.64767      5.65261      4.30758        -0.118523     -0.140840     -1.011344
O       5.56399      5.41898      8.48001         0.121970      0.162976     -0.381717
O       5.56848      9.39055      0.27362         0.253515     -0.061340     -0.151505
O       5.69961      9.39099     12.45604        -0.344397     -0.050536     -0.239003
O       5.66451      9.30639      4.36596        -0.037911      0.137450      0.168898
O       5.82628      9.41092      8.42733        -0.614212     -0.204522     -0.408394
O       9.29950      1.71162      0.21534         0.763628      0.493604     -0.602708
O       9.47334      1.92755     12.48474        -0.394324     -0.330904      0.126530
O       9.34964     13.30933      0.22313         0.327944     -1.124797     -0.066684
O       9.29124     13.03514     12.51042         0.147040      0.440268     -0.843436
O       9.29896      1.94395      4.34417         0.368946     -0.385642     -0.529723
O       9.34131     13.15305      4.24597         0.455854      0.140109      0.358712
O       9.20506      1.72485      8.37751        -0.014504      0.928594      0.875116
O       9.41284     13.19048      8.36863        -0.003506     -0.449375      0.548748
O       9.36437      5.60514      0.19051         0.438880      0.103912     -0.337003
O       9.41496      5.64400     12.44121        -0.687929     -0.338271     -0.231495
O       9.25174      5.57827      4.37391         0.091188      0.039488     -0.709387
O       9.37843      5.68325      8.48112        -0.209214     -0.204908      0.038693
O       9.42074      9.36756      0.23297         0.014646     -0.007725     -0.794968
O       9.27951      9.43199     12.58092         0.580055     -0.373162     -1.784437
O       9.26067      9.25947      4.39459         0.537283      0.776967     -0.807916
O       9.37283      9.35784      8.40345         0.001067      0.128533      1.003299
O       3.80318      1.66605      2.36546        -0.934369     -0.476352      0.091553
O       3.74068      2.14095     14.61382         0.451712     -0.412581     -0.551420
O       3.74434     13.19072      2.25234        -0.660000      0.963758      0.099288
O       3.72079     12.79215     14.66192         1.282720      0.150557      0.208238
O       0.01919      2.23043      2.10799         0.139290     -0.518072      0.747233
O       0.00302      1.57076     14.63321         0.577084      0.192727      0.057504
O       0.03610     12.80620      2.23048        -0.755306     -0.140732      0.492383
O       0.02934     13.40229     14.38734        -0.308045     -0.073819      0.464885
O       3.59529      1.91007      6.50301         2.069135     -0.466652     -0.172410
O       3.71949     13.23487      6.51996         0.908332     -0.085905     -0.465911
O      14.87208      1.89193      6.33295         1.126652      0.434912      0.581660
O       0.00516     13.07713      6.50419        -0.199346     -0.628333     -0.548583
O       3.68950      1.60792     10.61938        -0.211330      0.447442     -0.493504
O       3.72431     13.21942     10.52069        -0.022198      0.216861     -0.266208
O      14.92659      2.07683     10.61458         0.861550      0.759623      0.329699
O       0.00980     12.93056     10.44355        -0.484301     -0.234831      0.520105
O       3.74625      5.97580      2.16967        -0.394103     -0.370269      0.448978
O       3.82450      5.46169     14.42349        -2.266019     -0.172966      0.584827
O      14.93254      5.31813      2.29921         1.228520      0.045393      0.104928
O      14.99142      5.97229     14.61966         0.073271     -0.673490     -0.088555
O       3.70078      5.78267      6.44375         1.220631     -0.510097     -0.035457
O      15.00468      5.53314      6.29210        -0.478322      0.192677      0.507422
O       3.68093      5.80872     10.49448         0.031239      0.152297      0.065318
O      14.95505      5.36037     10.37503         0.055916     -0.686093      0.840473
O       3.73357      8.95459      2.39813         0.193350      0.801666     -0.762338
O       3.82481      9.52517     14.64058        -1.662415      0.396885      0.125629
O       0.00097      9.52269      2.27144        -0.865675      0.187464      0.519301
O      14.96999      8.93152     14.49080         0.419012      0.672262      0.476994
O       3.78402      9.16679      6.56143        -1.052496      0.439984     -0.336726
O       0.01505      9.64194      6.29666        -0.796347     -0.542848      0.174985
O       3.74235      9.14626     10.31534         0.522852      0.156595      0.344358
O       0.09567      9.63811     10.52762        -2.194973     -0.517929      0.115428
O       7.50644      2.00678      2.08900        -1.644301      0.613995      0.943796
O       7.50662      1.73922     14.63042        -0.089088     -0.669002     -0.277092
O       7.45777     12.80160      2.29316         1.617302     -0.275307      0.230086
O       7.48634     13.26401     14.66023         0.239511      0.396782     -0.101143
O       7.43445      2.01239      6.33850         0.324773      0.096235      0.333389
O       7.50420     13.06440      6.46793        -0.293796     -0.139150     -0.282555
O       7.42601      1.86477     10.62739        -0.252087      0.816081     -0.000358
O       7.46990     12.94559     10.36253         0.060284      0.255251      0.152457
O       7.41490      5.27385      2.01605         1.278351      0.000526      1.149341
O       7.54279      5.71744     14.62172        -0.298793      0.666476     -0.089161
O       7.47137      5.52966      6.42855        -0.233049     -0.400353      0.300996
O       7.41544      5.17945     10.51938         0.985317      1.091014     -0.501705
O       7.48645      9.79003      2.17531        -0.120254     -0.215872      0.511320
O       7.52270      9.14236     14.62298        -0.777336     -0.192736      0.378988
O       7.53944      9.54215      6.43154        -0.166444      0.171783      0.029872
O       7.51344      9.56849     10.52419         0.793463     -0.425691      0.102754
O      11.24034      1.44739      2.22084         0.363753      0.500539      0.410654
O      11.27785      2.11055     14.71795        -0.603834      0.052353      0.114327
O      11.31099     13.51734      2.16053        -0.371955     -0.505418      0.618530
O      11.20066     12.74064     14.42895         0.733159      0.290909      0.662092
O      11.17235      1.86054      6.56578         0.767149     -0.425787     -0.415072
O      11.23350     13.36656      6.35167         0.622833     -0.753724     -0.063698
O      11.23028      1.64563     10.39392        -2.290859     -0.445900     -0.051642
O      11.23827     13.28268     10.45187        -0.457920     -0.004193      0.018559
O      11.14214      5.83175      2.43412         0.331005     -0.126041     -0.561810
O      11.26138      5.33714     14.51403        -0.303334     -0.200486      0.886767
O      11.17916      5.84699      6.41426         1.893628      0.290680      0.124288
O      11.20024      5.89882     10.50888        -0.298113     -0.199361     -0.133845
O      11.18863      9.05490      2.27146         0.112272      0.041753      0.678160
O      11.25174      9.69484     14.54652        -0.077298     -0.065278      0.242253
O      11.22226      9.15311      6.47376         1.707262      0.210578     -0.121485
O      11.27007      8.99693     10.51686        -0.379044      0.993232     -0.271644
O       2.21658      3.69095      2.14816        -0.067703      1.094896      0.709588
O       1.71772      3.78390     14.61603        -0.407766     -0.763579     -0.264698
O       1.73471      0.03204      2.16753        -0.527646     -1.065440      0.232314
O       2.31355     14.91424     14.50092        -0.516490      1.722168      0.685022
O      12.85155      3.77754      2.35575        -0.444386     -1.014993     -0.088609
O      13.38446      3.66073     14.55067         0.207194      1.245860      0.156770
O      13.57958     15.00693      2.30012        -0.700051     -0.335074      0.023364
O      12.94264     14.95509     14.64140        -0.418225     -0.303181      0.099499
O       1.88960      3.75847      6.48509        -0.254204     -0.190056     -0.481902
O       1.83939     14.97976      6.49707        -0.401068      1.311817     -0.187314
O      12.99947      3.85255      6.35510        -0.218022     -1.142323      0.410372
O      13.24514     14.97714      6.37391        -0.532616      0.898681     -0.363271
O       2.14794      3.78312     10.62606        -0.384062     -0.181334      0.106417
O       1.62578      0.08844     10.40121         0.300713     -1.531945      0.340615
O      12.81208      3.73891     10.62026         0.450141      0.376779     -0.044209
O      13.45023     14.96585     10.37100        -0.389181     -0.150443      0.516058
O       1.57619      7.42952      2.22162        -0.290050      0.041100      0.292554
O       2.06414      7.52444     14.78493         0.353091     -1.336715     -0.277845
O      13.27423      7.44198      2.39791         0.127180      1.010793      0.137037
O      12.71319      7.47234     14.60087         0.365729      0.239020      0.285264
O       1.72132      7.46889      6.40800        -0.510954      0.636627      0.160086
O      13.33963      7.61434      6.65628        -0.418707     -0.827635     -0.512674
O       1.55293      7.46811     10.51400         0.592803      0.781369     -0.489125
O      13.42104      7.44220     10.49240        -0.211445      1.033223     -0.447849
O       2.14443     11.17774      2.17903        -0.536371     -0.041477      0.586880
O       1.66201     11.20789     14.54718        -0.558100     -0.438089      0.439105
O      12.81201     11.21155      2.24074         0.123043      0.310999      0.435165
O      13.49748     11.22555     14.57511        -0.110562     -0.533566      0.228691
O       1.94962     11.21798      6.42289         0.365883      0.367681     -0.064576
O      12.84978     11.26304      6.40613         0.304014     -0.026748      0.214158
O       1.99656     11.26475     10.40667         0.646101     -0.192116      0.010121
O      12.96880     11.25750     10.43121        -0.296951     -0.684654      0.497545
O       5.32967      3.73589      2.23647         0.171680     -0.115080      0.297553
O       5.79186      3.78891     14.48225         0.164627     -1.445207      0.116339
O       5.83406     14.88648      2.21201        -0.124584      1.469009      0.208946
O       5.40192     14.96957     14.62737        -0.245307      0.690690      0.258137
O       5.52712      3.71665      6.16952        -0.448490      1.082968      0.648829
O       5.65330      0.07114      6.37947        -0.291794     -0.972183      0.524174
O       5.40893      3.69534     10.63891        -0.356401     -0.279727      0.277319
O       5.74787     14.91329     10.49976         0.078416      0.587342     -0.050393
O       6.00286      7.43191      2.31562        -0.312198      0.791979     -0.225477
O       5.34282      7.53305     14.54106         0.833571     -0.427421      0.286553
O       5.72577      7.49102      6.57417         0.119679     -1.244508     -0.310480
O       5.78997      7.44243     10.49994         0.398711      0.187249     -0.460743
O       5.26005     11.17972      2.34667         0.592933     -0.452834     -0.062625
O       5.77083     11.24874     14.55725         0.767902     -0.372768      0.484830
O       5.46260     11.17239      6.31983        -0.100878      1.790160      0.204394
O       5.57659     11.19995     10.36567        -0.930442      0.786984      0.392558
O       9.49618      3.69079      2.08380         0.670425      1.118593      0.706849
O       9.16073      3.76843     14.49877         0.302757     -0.668357      0.413780
O       8.98088     14.97846      2.18616         0.394132     -0.645490      1.144766
O       9.75112     14.99324     14.41771        -0.772875     -0.186107      0.466566
O       9.54786      3.79746      6.43320        -0.409413     -0.440918      0.358737
O       9.29180      0.01171      6.54032        -0.511083      0.219990     -1.164878
O       9.58508      3.69435     10.33103        -0.142656      0.421562      0.430873
O       9.17284      0.00933     10.42456         0.038275     -1.449784      0.665099
O       8.92377      7.52340      2.14947         0.496389     -0.798206      0.400842
O       9.58817      7.46201     14.47870         0.299501      0.500820      0.852854
O       9.19034      7.54437      6.50279        -0.079755     -0.957897     -0.165273
O       9.02491      7.52526     10.47360         0.309756     -0.577969      0.198631
O       9.69177     11.25320      2.24424        -0.084825      0.452582      0.279885
O       9.10124     11.21100     14.53326        -0.053555      1.258411      0.715900
O       9.48414     11.25808      6.46759         0.405968      1.034525     -0.319375
O       9.49324     11.23834     10.48795         0.385229      0.407042     -0.237961
