  # total energy = -7880.22505827 
CRSYTAL
PRIMVEC
    15.6000000000000000    0.0000000000000000    0.0000000000000000
     0.0000000000000000   15.6000000000000000    0.0000000000000000
     0.0000000000000000    0.0000000000000000    17.640000000000000
PRESSURE
-4.63961 -4.76172 -4.63013 -0.157475 0.229434 -0.017266
PRIMCOORD
320 1
Pb       3.82694      3.92335      4.28675         0.538054      0.098095      0.399927
Pb       3.80298      3.76731     17.55564         0.324798      0.254632     -0.312071
Pb       4.08093      0.09027      4.34641        -0.360657      0.249603      0.444204
Pb       3.97093     15.48948     17.47178         0.075826     -0.015615      0.280401
Pb       0.00274      3.88326      4.32545         0.277045     -0.140723      0.253864
Pb      15.49507      3.87514     17.60888        -0.089635     -0.111599     -0.261746
Pb      15.57839     15.56050      4.36161        -0.325533      0.429180      0.254295
Pb       0.19374     15.49854     17.49187        -0.827632      0.022442      0.652722
Pb       3.96149      3.79645      8.70903         0.016142      0.054733     -0.230002
Pb       3.85836     15.54877      8.75065         0.507571      0.082262     -0.002520
Pb      15.57047      3.82381      8.68405         0.160794     -0.116528      0.296184
Pb       0.04016     15.44615      8.94663        -0.030568      0.546932     -0.642859
Pb       3.75031      4.06423     13.13749         0.086548     -0.783963      0.375258
Pb       3.77738     15.55242     13.13807         0.295502      0.282479      0.778065
Pb      15.47619      3.83854     13.14853         0.164378     -0.139886      0.032697
Pb       0.00496     15.59338     13.10706         0.210151      0.283254      0.293840
Pb       3.80348      7.73640      4.27479         0.644233      0.051692      0.627077
Pb       3.72145      7.74570     17.58885         0.619873      0.050136      0.291452
Pb      15.46552      7.79479      4.43125         0.769763      0.194470      0.038705
Pb      15.49164      7.74412      0.03360        -0.319169     -0.022098     -0.407010
Pb       3.91560      7.76418      8.71822         0.167466     -0.014541     -0.005883
Pb       0.02277      7.69565      8.75181        -0.317750      0.082959     -0.441264
Pb       3.87246      7.76438     13.18601        -0.112112      0.095129      0.067449
Pb      15.38964      7.83417     13.19009         0.812881     -0.096965      0.193002
Pb       3.89064     11.71155      4.31428        -0.437956     -0.187123      0.104825
Pb       3.92294     11.63774     17.59343         0.042804      0.396270      0.307870
Pb      15.53620     11.64140      4.44338         0.367813     -0.071016     -0.167426
Pb      15.55028     11.62013      0.12222         0.077839      0.109294     -0.615800
Pb       3.88005     11.65095      8.67985        -0.252551      0.006942      0.172797
Pb      15.56759     11.66408      8.80553         0.201469     -0.108555     -0.427829
Pb       3.90247     11.71935     13.19420        -0.102995     -0.275995      0.509937
Pb       0.05138     11.62031     13.16127         0.039932     -0.221109      0.077995
Pb       7.80403      4.06850      4.30608        -0.615434     -0.577363      0.264972
Pb       7.73976      3.80285     17.48637         0.561446      0.329662      0.284559
Pb       7.92791      0.04253      4.28011        -0.063892      0.720185      0.503596
Pb       7.90102     15.48962     17.59672        -0.408747      0.113324     -0.179090
Pb       7.91108      3.87663      8.72790        -0.104895     -0.471973      0.043520
Pb       7.73340     15.48837      8.70443        -0.130802      0.418888      0.830639
Pb       7.66185      3.91156     13.03822         0.323697     -0.488217      0.416740
Pb       7.68688     15.44900     13.21889         0.226756      0.000785      0.043159
Pb       7.68577      7.92733      4.31861        -0.173362     -0.291157      0.000033
Pb       7.81988      7.81600     17.60454        -0.495992     -0.077480      0.226005
Pb       7.82263      7.77070      8.76357        -0.381510      0.252876      0.186049
Pb       7.70186      7.68176     13.11387         0.111858      0.799068      0.344295
Pb       7.75786     11.82888      4.34572         0.344573     -0.703799      0.116633
Pb       7.73690     11.71474      0.05923         0.118653      0.103177     -0.786832
Pb       7.68784     11.66707      8.89451         0.428116     -0.050050     -0.054477
Pb       7.85680     11.55329     13.21768        -0.270989     -0.033595      0.326088
Pb      11.54987      4.02458      4.37176        -0.238111     -0.433133     -0.147341
Pb      11.72490      3.99940     17.50189         0.042128     -0.328752      0.341554
Pb      11.74768      0.05685      4.39063         0.184779      0.197901      0.057072
Pb      11.68475      0.00448     17.54760         0.275451     -0.043287      0.050848
Pb      11.68745      3.89084      8.78308        -0.097682      0.283537      0.140921
Pb      11.65299     15.55733      8.83973         0.490105     -0.234005      0.270719
Pb      11.54291      3.91596     13.21194         0.301054     -0.360790     -0.372272
Pb      11.72254     15.49730     13.17143        -0.056066      0.365644      0.090558
Pb      11.62461      7.81109      4.35569        -0.327147      0.226516      0.290139
Pb      11.61509      7.88094     17.61703         0.615514     -0.159557     -0.327271
Pb      11.75116      7.74005      8.77218        -0.061168     -0.297592     -0.065510
Pb      11.66732      7.82298     13.20402        -0.443571      0.124425     -0.251166
Pb      11.74404     11.94756      4.45172         0.170869     -0.415536     -0.134560
Pb      11.72102     11.77821      0.01657        -0.330389     -0.231052     -0.735753
Pb      11.66595     11.66078      8.70346         0.021948      0.223539     -0.020820
Pb      11.78605     11.71828     13.09090        -0.383585     -0.579430      0.518200
Ti       1.96598      1.86762      2.37234        -0.339803      1.741413     -0.811502
Ti       1.92681      1.96182     15.64631        -0.008476     -0.371204     -2.778956
Ti       1.99605     13.69124      2.51148         0.153364     -0.566106     -0.524640
Ti       1.91798     13.57325     15.50423         0.487011      0.268868     -1.591534
Ti      13.66057      2.03284      2.38545        -0.307493     -0.863506     -1.628281
Ti      13.66225      1.84683     15.55832        -0.529430      0.045594     -1.561546
Ti      13.73877     13.69355      2.36338        -0.123834      0.389533      0.080237
Ti      13.66654     13.56975     15.68077        -0.165773     -0.075781      0.501913
Ti       2.00104      1.81019      6.75819        -0.294634      0.842722     -0.373613
Ti       1.98580     13.62344      6.63921         0.959838     -0.989012      1.263161
Ti      13.64351      1.90042      6.97439         1.319706     -0.175956     -0.516507
Ti      13.75792     13.66785      6.79003        -0.529547     -0.436985      0.170152
Ti       1.89950      1.97361     11.18983         0.702631     -0.361273      0.412863
Ti       2.02397     13.61432     11.22743         0.122861     -0.416857     -0.416869
Ti      13.55910      1.84281     11.21679        -0.106538      1.250147     -0.130933
Ti      13.71980     13.54861     11.17838        -0.878999     -0.077259     -1.710305
Ti       1.85084      5.85078      2.37459         0.489506     -0.207222     -0.079871
Ti       1.83967      5.93726     15.66441         0.102165     -0.959307     -0.967295
Ti      13.50085      5.88803      2.49009         0.485227     -0.626396     -1.902091
Ti      13.66249      5.78943     15.51647        -0.393861      0.208176      0.025104
Ti       1.89645      5.78660      6.78460         0.621766     -0.210025     -1.094660
Ti      13.61851      5.80847      6.59356        -0.406561     -0.425375      1.930338
Ti       1.81375      5.89159     11.07053        -0.208675     -0.302647      0.333923
Ti      13.59091      5.76667     11.22644        -1.080457     -0.035968      0.183724
Ti       1.85444      9.75765      2.40972         0.756367      0.192514     -0.309700
Ti       1.95080      9.81587     15.68495        -0.368090     -0.214180     -0.567741
Ti      13.60224      9.74569      2.39669         0.230556      0.406067     -0.637155
Ti      13.71083      9.72424     15.56834        -0.723807     -0.037632     -0.026211
Ti       1.89721      9.70217      6.80639        -0.048002      0.695245     -1.664591
Ti      13.61014      9.66252      6.75031         0.198720      0.915216     -0.153786
Ti       1.92363      9.67263     11.11082        -0.208039      0.643196     -0.290888
Ti      13.63847      9.66820     11.16828        -0.444306      0.084934      1.077722
Ti       5.91066      1.97839      2.27282         0.512560      0.188192      0.521370
Ti       5.94442      1.86538     15.58573        -0.463993      0.001683      0.385959
Ti       5.96082     13.71143      2.52656        -1.680327      0.323371     -2.123450
Ti       5.83419     13.60831     15.53782         0.043084     -0.221412     -1.078226
Ti       5.93887      1.89438      6.74472         0.020482      0.829468      0.556591
Ti       5.88669     13.57757      6.70053        -0.381932      0.709054      0.190557
Ti       5.81264      1.76852     11.20681        -0.183491      0.131231     -0.759289
Ti       5.86448     13.48284     11.24155         0.702468      0.304835     -0.328961
Ti       5.86059      5.90985      2.27368        -0.891717     -0.653233     -0.490936
Ti       5.82992      5.84797     15.67866        -0.176601     -0.219693     -1.221425
Ti       5.86275      5.89625      6.86032        -0.054269     -1.086486     -1.517508
Ti       5.71966      5.77191     11.19661         0.087201      0.696776     -0.701418
Ti       5.78962      9.81967      2.34023        -0.084287     -0.755848     -0.794012
Ti       5.81189      9.72697     15.69300         0.714497      0.126161      0.127680
Ti       5.87105      9.76998      6.72397        -0.725265     -1.199501      1.360097
Ti       5.68448      9.69589     11.12564         1.836960     -0.100885     -1.153486
Ti       9.80938      1.89016      2.29969        -0.982078      0.283332      0.887752
Ti       9.86752      1.91342     15.53248        -0.654573      0.108436     -1.244783
Ti       9.85225     13.65077      2.40647         0.198776      1.542958     -0.054598
Ti       9.78756     13.65788     15.50194        -0.328574     -0.903640      0.094080
Ti       9.84928      1.79931      6.86628        -1.053286      1.594025      0.412128
Ti       9.74251     13.62554      6.76717         0.261350     -0.119924     -0.694250
Ti       9.68219      1.82621     11.27150         0.215833      1.143774     -0.690069
Ti       9.72479     13.63070     11.26348        -0.202610     -1.225316     -0.215003
Ti       9.63140      5.90597      2.38105        -0.248263      0.156023     -0.741323
Ti       9.75341      5.90627     15.59945        -0.030234     -0.437545     -0.038009
Ti       9.74881      5.86323      6.76400         0.082051     -0.632921     -0.701755
Ti       9.68140      5.90063     11.14423         1.655583     -0.624569     -0.449775
Ti       9.86176      9.83006      2.43370        -1.013531     -0.244102      0.463331
Ti       9.74437      9.77767     15.70599         0.498490      0.869495     -0.965235
Ti       9.64962      9.72331      6.76677         0.689180      0.791052     -0.289686
Ti       9.67516      9.78115     11.16733         0.190882     -0.572351      0.962723
O       1.81894      1.93573      0.54695         0.476736     -0.061539      0.878418
O       1.86634      1.89941     13.76053         0.022399     -0.062337      2.074874
O       2.08561     13.67449      0.77450        -0.349189      0.077208     -0.152478
O       1.98891     13.55034     13.65011        -0.641703      0.077297      1.359883
O      13.55876      2.03258      0.58837         0.256658      0.034941      1.274487
O      13.65817      1.86752     13.72512         0.282158     -0.145933      1.119323
O      13.73868     13.73298      0.61617        -0.371298     -0.363907     -0.317150
O      13.63212     13.43276     13.97940         0.214676      0.239854     -1.516465
O       2.03999      1.93629      4.97165        -0.340343     -0.007424      0.892117
O       1.95032     13.48794      4.91990         0.026790      0.414805     -0.905715
O      13.80204      1.74669      5.25151        -0.273761      0.059695     -0.470384
O      13.74815     13.73322      4.97965         0.013429     -0.266439      1.033946
O       1.88982      1.84415      9.45874         0.506425     -0.039741     -0.288351
O       2.13038     13.60239      9.43145        -0.405821     -0.058600      1.239018
O      13.59835      1.91669      9.43909         0.057817     -0.145310      0.249558
O      13.77003     13.52288      9.36120        -0.102463      0.230871      1.582285
O       1.72395      5.87286      0.57736         0.386110     -0.156506      0.818981
O       1.88574      5.81428     13.87776         0.176293      0.313626      1.119688
O      13.57654      5.79556      0.65011         0.237173      0.302818      1.757615
O      13.62611      5.67089     13.74726         0.240002      0.731740      0.537662
O       1.97106      5.78558      4.96792        -0.171574     -0.071355      1.550777
O      13.57386      5.87898      4.86602        -0.129425     -0.144402     -1.134684
O       1.78684      5.83581      9.30022         0.150510      0.310001      0.799877
O      13.41899      5.81860      9.48572         0.371910      0.092087     -0.055725
O       1.88214      9.80063      0.60071        -0.151806     -0.267044      0.888733
O       2.02720      9.75248     13.95392        -0.181476     -0.038057      0.036533
O      13.67201      9.59452      0.60053        -0.113351      0.357886      1.269702
O      13.78533      9.79250     13.76104        -0.163151     -0.291234      0.861960
O       1.79127      9.76811      4.97554         0.406910     -0.169239      1.211828
O      13.64135      9.83042      4.97414        -0.144718     -0.220976      0.936250
O       1.79644      9.85036      9.33059         0.290347     -0.754559      0.635739
O      13.69694      9.58492      9.44925        -0.048306      0.169989     -0.802961
O       5.89740      1.71891      0.50927         0.035021      0.737498      0.710205
O       5.83256      1.77517     13.87291         0.392300      0.311155     -0.495016
O       5.85306     13.79746      0.69536         0.133918     -0.314461      1.459851
O       5.87054     13.46904     13.74039         0.045679      0.451717      1.173783
O       5.92524      2.06771      5.01731        -0.083291     -0.524816      0.244707
O       5.92752     13.63070      4.92120         0.019352     -0.189258      0.395942
O       5.80932      1.75431      9.42859        -0.109460      0.223388      0.979107
O       6.00631     13.38734      9.44599        -0.472129      0.425624      0.810467
O       5.89491      5.87439      0.50099        -0.114283     -0.029468      0.454891
O       5.74191      5.84553     13.78186        -0.014387     -0.135309      1.739308
O       5.93706      5.87244      5.07977        -0.144643      0.120052      0.868548
O       5.65328      5.96518      9.42940         0.618571     -0.628640      1.014401
O       5.79988      9.87036      0.51386        -0.052847     -0.100351      1.801153
O       5.79212      9.86714     13.96214         0.011643     -0.518609      0.090192
O       5.77278      9.52675      4.99467         0.354820      0.882435      0.216292
O       5.88130      9.64289      9.29125        -0.432289      0.198000      1.861914
O       9.78356      1.81614      0.58202         0.059351      0.305420     -0.387166
O       9.92551      1.87567     13.70810        -0.398309     -0.111727      1.679715
O       9.79935     13.61114      0.66382        -0.039017      0.114343     -0.038386
O       9.78383     13.56203     13.72082         0.150466      0.349949      0.970058
O       9.90335      1.79799      5.15309        -0.095520      0.036190     -0.876408
O       9.75679     13.87430      4.94650         0.134777     -0.872322      1.953094
O       9.65013      1.94298      9.48394         0.464808     -0.415009      0.687541
O       9.69828     13.44032      9.50578         0.068459      0.496928      0.005859
O       9.52393      5.91971      0.62072         0.434585      0.182900     -0.097967
O       9.87634      6.01432     13.84751        -0.458419     -0.377817      1.167301
O       9.73482      5.84581      4.91154         0.275810      0.107644      1.669828
O       9.79881      5.79046      9.32361        -0.246083      0.316783      1.319801
O       9.83166      9.91973      0.69010        -0.003404     -0.173294      0.223362
O       9.80186      9.62036     13.96445        -0.321639      0.403956      0.152792
O       9.74292      9.87105      5.01506        -0.194147     -0.499973      0.285795
O       9.69945      9.75106      9.44062        -0.052907     -0.118342     -0.750363
O       4.02392      1.97237      2.80409        -0.797011      0.099847     -0.651269
O       3.88087      1.86518     15.98555        -0.792198      0.541049      0.159715
O       3.90421     13.77979      2.92938         0.150429     -0.537987     -0.062143
O       3.80753     13.70212     15.77493         0.761150     -0.176462      0.775187
O      15.55554      2.07589      2.79057         0.558677     -0.288321     -0.118472
O      15.46630      1.81689     15.97432         1.235192      0.475428      0.285476
O       0.05558     13.65815      2.79852        -0.036614     -0.100280      0.077535
O      15.59970     13.51442     16.13422         0.076808     -0.019904     -0.401501
O       3.88185      1.95857      7.21706         0.325734      0.013912     -0.011411
O       4.01052     13.42343      7.14030        -0.004562      0.561222     -0.336898
O       0.12518      1.78480      7.39032        -0.670388     -0.094341     -0.356503
O       0.21396     13.66809      7.12020        -2.175841      0.142549      0.366430
O       3.89957      1.80077     11.71194         0.253548      0.185968     -0.779935
O       3.96989     13.63750     11.68412        -0.785839     -0.142191     -0.685086
O       0.03852      1.88155     11.55964        -0.872183      0.026893      0.215036
O      15.53280     13.52997     11.55952         1.332489      0.319066      0.065385
O       3.91557      5.78255      2.75213        -0.301734      0.091928     -0.323109
O       3.79317      5.81574     16.22038        -0.340899     -0.158584     -0.764644
O       0.00335      5.96516      2.85960        -0.430285     -0.625073     -0.246663
O      15.55408      5.76913     16.10073        -0.350187      0.281563     -0.362159
O       3.92470      5.73565      7.21895        -0.573098      0.252962     -0.183450
O      15.43172      5.84866      7.13753         1.406727     -0.049991     -0.098564
O       3.84316      5.94151     11.61794        -0.268012     -0.536383     -0.298428
O      15.48990      5.81987     11.49983         1.249592     -0.235973      0.051250
O       3.86899      9.84928      2.82890         0.037805     -0.564228     -0.432412
O       3.95184      9.73478     16.11253        -1.250807     -0.137999      0.081498
O      15.47887      9.78463      2.88517         0.856068     -0.519831     -0.548911
O      15.56907      9.87826     16.04432         0.302660     -0.092786      0.130593
O       3.86399      9.62867      7.24721         0.440272      0.511587     -0.613959
O      15.57725      9.70919      7.12654        -0.624475     -0.195319      0.371195
O       3.86652      9.59581     11.52933        -0.581564      0.025919     -0.073612
O       0.08124      9.66124     11.64762        -0.885793      0.309068     -0.201971
O       7.85642      1.94541      2.85577         0.123495     -0.074090     -0.638843
O       7.92660      1.93392     15.95324        -0.844950     -0.184239     -0.125688
O       7.83464     13.63041      2.85049         0.133659      0.230356     -0.349806
O       7.74195     13.70747     15.97314         0.553385     -0.207704     -0.068687
O       7.84429      1.67644      7.21828        -0.215607      0.946772     -0.363089
O       7.81720     13.65310      7.18435         0.313562     -0.072578     -0.460108
O       7.78646      1.90455     11.62802        -0.377393      0.141208      0.248428
O       7.81165     13.46025     11.78353        -0.137126      0.132365     -0.654142
O       7.70153      5.99795      2.80536         0.838765      0.212449      0.061294
O       7.72405      5.88282     15.95701         1.000551     -0.163541     -0.161731
O       7.87366      5.76354      7.19081        -0.070261      0.568306      0.162910
O       7.75964      5.83561     11.64387        -0.249348     -0.288462     -0.634264
O       7.70424      9.76949      2.81220         0.511157      0.525154     -0.269904
O       7.78517      9.81319     16.22094        -0.314443      0.011250     -0.521344
O       7.73875      9.63797      7.25253         0.853980     -0.276116     -0.761646
O       7.68992      9.77719     11.66682         0.566726     -0.381523     -0.449052
O      11.63565      1.90428      2.80622         1.199599      0.543565      0.169743
O      11.71930      1.97294     15.95832        -0.191439     -0.541395      0.306105
O      11.78369     13.90410      2.83603        -0.013545     -1.270918     -0.280655
O      11.62835     13.66813     15.99232         0.465400     -0.262490      0.284850
O      11.78018      1.86003      7.31668        -0.821880     -0.148322      0.049683
O      11.78112     13.48986      7.08054        -1.234952      0.401952      0.048942
O      11.68452      1.91583     11.67449         0.094601     -0.806758     -0.544214
O      11.68940     13.56088     11.59169         0.579520      0.209570     -0.038822
O      11.59313      5.79086      2.75511         0.945401      0.827968      0.203758
O      11.74060      5.89747     16.12698        -1.005042      0.451952     -0.689688
O      11.73606      5.71133      7.14947        -0.642545      0.290506     -0.288978
O      11.61125      5.94546     11.60429        -0.015528     -0.354017      0.086501
O      11.70117      9.82396      2.84661         0.017558     -0.114340     -0.077055
O      11.77031      9.63183     16.04596        -0.693414      0.354695      0.178360
O      11.71068      9.81338      7.16300        -0.164538     -0.381856      0.052920
O      11.65924      9.66780     11.59124         0.655671      0.108561     -0.250943
O       1.96817      3.88078      2.88801        -0.418960      0.216277     -0.798799
O       1.76976      3.83733     15.90552         0.637023     -0.252704      0.680616
O       1.95827      0.12842      2.82414        -0.054667     -1.389132     -0.008286
O       1.83827     15.48288     15.90092         0.158973      0.630987      0.125315
O      13.60469      3.92557      2.86429        -0.059618      0.047043      0.023475
O      13.54133      3.87506     15.87248         0.544517      0.100673      0.535165
O      13.83020      0.01459      2.81825        -0.544168      0.751140     -0.131693
O      13.57710     15.50905     15.89059         0.078612      0.454870      0.333891
O       1.84882      3.88575      7.26222         0.238435      0.021968     -0.457171
O       2.14880     15.51966      7.15715        -0.192047     -0.136308     -0.357901
O      13.70166      3.83999      7.12700        -0.160716     -0.048252      0.053937
O      13.61907     15.46705      7.43355         0.454537      0.035428     -0.390053
O       1.99348      3.86892     11.53031        -0.174653      0.888282     -0.149534
O       1.98319     15.50843     11.58479        -0.607204     -0.294745     -0.125380
O      13.53203      3.84675     11.68526         0.422687      0.012987     -0.482913
O      13.66315     15.55215     11.54274        -0.020645     -0.699658      0.130353
O       2.02326      7.76442      2.87290        -0.869657      0.444434     -1.001552
O       1.75621      7.86106     16.06535         0.720180     -0.764960      0.041589
O      13.61216      7.80760      2.93093        -0.495099      0.023053     -0.589210
O      13.69630      7.76665     15.93115         0.403087     -0.141908     -0.043032
O       1.88518      7.71870      7.14412        -0.011622      0.007472      0.216341
O      13.58010      7.71245      7.09837        -0.148498      0.941532     -0.079895
O       1.85786      7.74350     11.62573         0.207080     -0.238579     -0.570488
O      13.66181      7.76070     11.67550        -0.140682      0.312622     -0.281592
O       1.94289     11.61125      2.75520        -0.146649      0.868844      0.291402
O       2.00431     11.72585     16.00870        -0.071392     -0.284055      0.327006
O      13.62524     11.72001      2.71141        -0.109113      0.194516      0.097260
O      13.51298     11.61888     16.08254         0.370248      0.464536      0.361864
O       1.95767     11.65436      7.12915         0.086196     -0.083552      0.179503
O      13.69176     11.72652      7.35166         0.476902     -0.466480     -0.941040
O       2.03696     11.55977     11.67741        -0.314577      0.683441     -0.643215
O      13.69635     11.61659     11.60214        -0.171214      0.080683     -0.334549
O       6.03828      3.93044      2.68670        -0.563114     -0.299838     -0.412731
O       5.86899      3.84263     16.09814        -0.521405      0.035912     -0.394834
O       5.86998      0.05393      2.90402         0.578526     -0.261609     -0.408540
O       5.79363     15.56088     16.00401         0.505045     -0.112033     -0.263739
O       5.98255      3.83398      7.26169        -0.354802     -0.118453      0.170642
O       5.80662     15.55792      7.19309        -0.243277     -0.953263     -0.400269
O       5.75319      3.80109     11.63149         0.147914      0.899377     -0.465667
O       6.02744     15.43513     11.58747        -0.690802      0.715596     -0.100972
O       5.71542      7.80334      2.76636         0.387706      0.655299     -0.389050
O       5.77402      7.70855     16.05910         0.033111      0.789264     -0.207428
O       5.86659      7.73515      7.31603         0.039135      0.347666     -0.461042
O       5.82046      7.81943     11.68159        -0.018577     -0.635218     -0.277786
O       5.79043     11.75186      2.78818         0.364474     -0.158204      0.103587
O       5.79789     11.76250     16.09516         0.040463     -0.140861      0.059538
O       6.01180     11.62073      7.21924        -0.596359      0.318839     -1.025543
O       5.72253     11.60071     11.62355         0.163102     -0.275140     -0.322367
O       9.67968      4.07257      2.74696         0.130706     -1.642120      0.140174
O       9.79995      3.90122     16.00880        -0.210714      0.661884     -0.510825
O       9.79741      0.01302      2.73479        -0.558752      0.108558      0.178936
O       9.76807     15.57207     16.08297         0.193710      0.131051     -0.732699
O       9.72523      3.80582      7.23490         0.284640      0.117450     -0.256177
O       9.79891     15.57253      7.38463         0.421904     -1.830094     -0.441021
O       9.81163      3.84754     11.63908        -0.809375      0.738759     -0.162970
O       9.69039     15.49257     11.65899         0.206122      0.418262     -0.266264
O       9.80569      7.89508      2.82932        -0.152169      0.332504     -0.295467
O       9.65137      7.93966     16.14181         0.414149     -2.159710      0.132173
O       9.79457      7.75140      7.20093         0.008412      0.187130     -0.336199
O       9.71377      7.77068     11.66406        -0.540246      0.094987     -0.534136
O       9.87031     11.88704      2.91904        -0.240393     -2.024900      0.034892
O       9.73882     11.74361     16.08962         0.089993      0.115187     -0.117194
O       9.62410     11.64281      7.16199         0.404994      0.691346     -0.171979
O       9.74803     11.60008     11.70392         0.104781      0.169611     -0.262949
