  # total energy = -7878.59187876 
CRSYTAL
PRIMVEC
    15.2000000000000000    0.0000000000000000    0.0000000000000000
     0.0000000000000000   15.2000000000000000    0.0000000000000000
     0.0000000000000000    0.0000000000000000    17.000000000000000
PRESSURE
7.67568 7.95302 3.6253 0.288651 0.141429 -0.049393
PRIMCOORD
320 1
Pb       3.84574      3.77724      4.22342        -0.205723      0.296947     -0.153630
Pb       3.60146      3.71982      0.05282         1.018876      0.513558     -0.346693
Pb       3.86506     15.06257      4.28682        -0.310616      0.213385     -0.753338
Pb       3.79275     15.17816      0.02606         0.092492      0.044364      0.297277
Pb      15.12830      3.80218      4.28058        -0.208357     -0.271037     -0.840165
Pb      15.10838      3.74897     16.98102        -0.500113     -0.002553      0.142711
Pb      15.18997     15.09546      4.11868         0.503856      0.328906      0.499904
Pb      15.19244      0.03633     16.96077        -0.256640      0.195879     -0.125465
Pb       3.64214      3.68372      8.56540        -0.156655      0.878334     -0.821517
Pb       3.73614      0.10486      8.30616         0.025958     -0.614957     -0.063915
Pb      15.03698      3.82095      8.36706         0.076330      0.192454      0.450257
Pb       0.16501      0.04123      8.56267        -0.671260     -0.436842     -0.340032
Pb       3.75941      3.80136     12.85289         0.141847      0.529239     -0.410394
Pb       3.79526     15.08903     12.62657         0.190935      0.171655      0.182934
Pb       0.03396      3.59137     12.81787        -0.292412      0.736263     -0.514971
Pb      15.13727     15.08322     12.60503         0.338524     -0.030647      0.029325
Pb       3.74567      7.56208      4.18866         0.154505     -0.120884      0.159977
Pb       3.81270      7.52314      0.12025         0.223967     -0.290452     -1.078095
Pb       0.02320      7.44463      4.18930        -0.642557      0.201842     -0.277142
Pb       0.15316      7.63844      0.11388        -0.888928     -0.202460     -0.456859
Pb       3.70231      7.53185      8.55750         0.162415     -0.257704     -0.624140
Pb       0.02516      7.64425      8.51955        -0.762533     -0.327764      0.155760
Pb       3.82327      7.73165     12.82907         0.258383     -0.815480     -0.000698
Pb      15.16022      7.70304     12.77357        -0.156656     -0.702782      0.306043
Pb       3.88913     11.38011      4.20709        -0.501791      0.248519     -0.233290
Pb       3.67879     11.37811     16.82786         0.499233     -0.351350      0.885538
Pb      15.15916     11.29876      4.24835         0.404699      0.812032     -0.282934
Pb      15.17598     11.41783      0.03692         0.101187     -0.708361     -0.211353
Pb       3.81312     11.32179      8.36960         0.021255      0.589195     -0.161264
Pb      15.15898     11.33516      8.47975        -0.428300      0.293783      0.223498
Pb       3.85501     11.39120     12.69499        -0.162530      0.255819      0.126236
Pb       0.00157     11.54061     12.53376         0.650316     -0.591450      0.988203
Pb       7.64177      3.80608      4.23453        -0.589988      0.179336     -0.033167
Pb       7.59326      3.77548     16.93391        -0.327161     -0.091837      0.260415
Pb       7.59849      0.10922      4.26547        -0.349191     -0.581650     -0.669484
Pb       7.50915      0.03568     16.99188         0.290279     -0.223227      0.007488
Pb       7.49546      3.86501      8.49167         0.007082      0.022534     -0.248246
Pb       7.52746     15.19947      8.47086         0.089986     -0.391336     -0.268200
Pb       7.55245      3.66845     12.66243        -0.205833      0.713751      0.150400
Pb       7.67448      0.07207     12.66874        -0.505144     -0.351033      0.393165
Pb       7.44737      7.63994      4.39096         0.131301     -0.315130     -0.734185
Pb       7.58292      7.41827     16.93764        -0.476499      0.833789      0.212632
Pb       7.63232      7.53873      8.60509        -0.009766     -0.160879     -0.665277
Pb       7.77079      7.54627     12.85289        -0.815852     -0.054435     -0.699857
Pb       7.67629     11.43153      4.13469         0.045431      0.282098      0.624972
Pb       7.63056     11.30436     16.96460        -0.523054      0.209479      0.427060
Pb       7.58284     11.26640      8.36787        -0.165642      0.751478     -0.213740
Pb       7.61686     11.29650     12.79351        -0.071243      0.268354     -0.326777
Pb      11.45096      3.66844      4.30797        -0.058138      0.389053     -0.280691
Pb      11.44034      3.92869     16.99074        -0.110082     -0.598890     -0.086604
Pb      11.29543      0.01482      4.26994         0.263667     -0.226664     -0.023829
Pb      11.28609     15.18401     16.94334         0.510296      0.257425     -0.162918
Pb      11.30884      3.73937      8.48584         0.099645      0.331019     -0.115713
Pb      11.36306     15.14139      8.62525         0.145746     -0.148034     -0.614572
Pb      11.46213      3.80591     12.72839         0.016054     -0.095039     -0.364353
Pb      11.33520     15.18078     12.84319        -0.164345     -0.327728     -0.181863
Pb      11.37521      7.56791      4.33084         0.099214     -0.009498     -0.596293
Pb      11.34937      7.54602      0.06837         0.077695      0.067529     -0.211130
Pb      11.41605      7.65919      8.34584         0.000034     -0.369220     -0.017470
Pb      11.36320      7.54232     12.62187         0.051797      0.333120      0.905187
Pb      11.43583     11.51230      4.25191        -0.298081     -0.214421     -0.167907
Pb      11.30697     11.27464      0.12302         0.250765     -0.074472     -0.438390
Pb      11.34796     11.33755      8.52914         0.215040      0.355033     -0.757162
Pb      11.49681     11.37395     13.00417        -0.139568     -0.027776     -0.442328
Ti       1.83857      1.93287      2.26767        -0.390984     -0.655179     -0.106214
Ti       1.89309      1.86746     15.03531        -0.123910      0.222936      0.074213
Ti       1.97019     13.25850      2.08387         0.372628      0.814552      2.150025
Ti       1.94741     13.28473     14.90628        -1.655704     -0.310125     -0.844592
Ti      13.21685      1.84421      2.26732         1.182771      0.959904     -0.247493
Ti      13.21976      1.88929     14.93914        -0.107895     -0.228010      1.289849
Ti      13.36742     13.31625      2.11247        -0.094570     -0.294331      1.435858
Ti      13.37963     13.19513     15.05153        -1.849327      0.877256     -0.354418
Ti       1.72639      1.93241      6.30430         1.666350     -0.591441     -0.767878
Ti       1.82695     13.24282      6.45604         0.716458      0.580385      0.110664
Ti      13.23092      1.82553      6.53582        -0.765712      0.158133     -0.175593
Ti      13.33380     13.30256      6.43176        -0.848983     -0.215893      1.425011
Ti       1.86200      1.88797     10.75851        -0.366151      0.393613     -0.651174
Ti       2.01616     13.28456     10.62357        -1.374409     -0.464187      0.945892
Ti      13.23527      1.87795     10.70263         0.085543      0.875759     -0.758627
Ti      13.21980     13.28917     10.79209         0.804525      0.034371     -1.905574
Ti       1.83008      5.63866      2.19054        -0.025978     -0.156402      1.912279
Ti       1.82965      5.61952     14.99782         0.903126      1.524422      0.179247
Ti      13.16255      5.67080      2.19263         1.199314     -0.082590      0.917002
Ti      13.28287      5.74630     14.89370        -0.069398      0.248583      0.845018
Ti       1.76246      5.69617      6.39171         1.718638     -0.564660      0.041519
Ti      13.21643      5.67278      6.36125        -0.444446      0.436178      0.661719
Ti       1.86577      5.74036     10.69498        -0.491627     -1.320235      0.327198
Ti      13.27578      5.76075     10.72124         0.699756     -1.102479     -0.925007
Ti       1.82751      9.45358      2.30037         0.945439      0.782172     -0.707959
Ti       1.85288      9.45691     14.98903        -0.278989     -0.373383      0.629217
Ti      13.23913      9.52675      2.33073         0.006340     -0.796002      0.173782
Ti      13.25723      9.44646     15.12232         0.042566      0.059209     -1.700181
Ti       1.76367      9.42079      6.46406         0.969735      0.897756     -0.269567
Ti      13.28154      9.49234      6.30991        -0.658891      0.080470      3.107740
Ti       1.92556      9.41752     10.75840        -0.681123      1.192078     -0.019039
Ti      13.28436      9.49765     10.82571         0.110582     -0.107134     -0.260248
Ti       5.62990      1.91331      2.13934         0.419668     -0.413566      0.514852
Ti       5.65207      1.86716     15.01409         0.932265      0.182929      0.774451
Ti       5.80846     13.24623      2.20946        -0.919604      1.153701     -0.488929
Ti       5.67426     13.31181     15.00977         0.814313     -0.209335     -0.807146
Ti       5.60145      1.94785      6.33699         0.302755      0.395661      0.618808
Ti       5.70082     13.35564      6.42308         0.484761     -1.618018      0.915496
Ti       5.56006      1.93434     10.63683         1.172716      0.095491      0.521885
Ti       5.75849     13.28461     10.67791         0.001083      1.045146     -0.986602
Ti       5.66167      5.68970      2.21779         0.253448      0.756550     -0.809639
Ti       5.75461      5.59168     14.91077        -2.031862      1.101260      0.721003
Ti       5.63075      5.73706      6.57359        -0.291640     -1.307235     -0.742397
Ti       5.63705      5.75182     10.83059         0.511820     -0.657886      0.209751
Ti       5.67353      9.49857      2.22438        -0.080536     -0.452529      0.210007
Ti       5.70428      9.52703     14.97709        -0.325586     -1.230907     -0.173052
Ti       5.60579      9.41381      6.41500         0.118780      1.256127     -0.018961
Ti       5.69203      9.51261     10.67540         0.873212     -0.489330      1.211510
Ti       9.46016      1.89339      2.22137        -0.017274      0.016356     -1.326817
Ti       9.44756      1.92148     14.95965         0.399496     -0.551351      0.530772
Ti       9.60287     13.30181      2.20069        -1.124547      0.052186      1.041762
Ti       9.46776     13.28450     15.03985         0.693024      0.482058     -0.374460
Ti       9.39658      1.91686      6.51619         0.473812     -0.123381      1.077285
Ti       9.53186     13.29867      6.46799        -0.284012     -0.057708     -0.016885
Ti       9.41702      1.90526     10.68846         0.563976     -0.644846      0.170232
Ti       9.47484     13.26358     10.77687         0.354822     -0.683566     -0.893876
Ti       9.40135      5.64465      2.26227         0.657981      1.052463      0.125537
Ti       9.51251      5.64437     14.96797         0.163725      0.635330      1.125223
Ti       9.47457      5.65766      6.36312        -0.391034      0.609629      1.003309
Ti       9.52247      5.65642     10.76160        -1.291707     -0.671565      0.463686
Ti       9.44195      9.38285      2.35127         0.477193      1.363732      1.067972
Ti       9.44549      9.47816     14.99292         0.833491     -0.318815      0.484817
Ti       9.44128      9.48466      6.36072         0.742874      0.165131      0.542509
Ti       9.51377      9.45335     10.67687        -0.574080      0.808809     -0.092169
O       1.80765      2.03478      0.39182        -0.018085     -0.234833      0.223763
O       1.87666      2.01872     13.26281         0.025156     -0.667205     -0.426639
O       2.03697     13.27094      0.35182        -0.500931     -0.056696     -1.097375
O       1.88063     13.34340     13.07504         0.215241      0.086605      1.132973
O      13.33390      1.95991      0.49491        -0.114004     -0.185180     -0.708230
O      13.21761      1.92020     13.19301         0.145145     -0.029764     -1.221782
O      13.34096     13.16979      0.38236        -0.007498      0.498336     -1.201671
O      13.36447     13.17366     13.19746        -0.241027      0.188160      0.052678
O       1.78736      1.80975      4.51331         0.289650      0.514001      0.540619
O       1.84369     13.32675      4.69833         0.328903     -0.188718     -0.403494
O      13.16491      1.88338      4.74398         0.012576     -0.032430     -0.252339
O      13.34778     13.33452      4.68854        -0.068601     -0.025886     -0.683091
O       1.93440      1.83068      8.93439        -0.391925      0.276947      0.276951
O       1.97424     13.39316      8.88583        -0.030855     -0.098700     -1.239290
O      13.36220      1.90989      8.87897        -0.072641     -0.026220      0.617333
O      13.14026     13.32079      8.99220         0.067963     -0.255578      0.196025
O       1.95898      5.64717      0.45314        -0.321911     -0.088641     -0.986280
O       1.79364      5.63285     13.24400         0.038873      0.132578     -0.663709
O      13.09987      5.68449      0.41952         0.605878     -0.014215     -0.155365
O      13.18647      5.70801     13.10647         0.269661      0.207024      0.049888
O       1.88428      5.69488      4.60356        -0.092657      0.129316      0.464236
O      13.10434      5.63595      4.59487         0.390853     -0.093464      0.085506
O       1.84303      5.66248      8.89053         0.267532      0.290713      0.375803
O      13.28881      5.81200      8.89697        -0.155814     -0.208535      0.360577
O       1.81610      9.41695      0.48295         0.443040      0.393766      0.146655
O       1.80987      9.35521     13.23281         0.126315     -0.018507     -0.611908
O      13.30370      9.55989      0.58138        -0.329330      0.001797     -1.225331
O      13.27868      9.49509     13.20398        -0.089639     -0.083471      0.862934
O       1.73987      9.47496      4.68258         0.197740      0.015523     -0.253354
O      13.34029      9.60200      4.62257         0.068703      0.037537     -2.375765
O       1.81256      9.43053      8.99693         0.259974     -0.005061     -0.764982
O      13.41251      9.41514      9.06734        -0.446780     -0.005894     -0.515081
O       5.60572      1.97086      0.35295         0.345739     -0.373246      0.264020
O       5.73371      1.89956     13.28413        -0.319498     -0.323824     -1.812813
O       5.74035     13.24882      0.40101        -0.013324      0.079868      0.111751
O       5.60664     13.33138     13.21048        -0.083370      0.354442      0.009216
O       5.77268      1.94357      4.57227        -0.350283     -0.109821     -0.232827
O       5.62642     13.42710      4.64978         0.448263     -0.616865     -0.443395
O       5.51478      2.08523      8.88213         0.209994     -0.255466     -0.627973
O       5.82523     13.23076      8.88868        -0.332934      0.039855      0.278528
O       5.75583      5.72805      0.40187        -0.297804     -0.046510      0.642791
O       5.65083      5.64852     13.14732         0.269145      0.242794     -0.182750
O       5.67186      5.77202      4.79245        -0.027719      0.096681     -0.963847
O       5.71237      5.64141      9.03743        -0.177418      0.231710     -1.047694
O       5.69902      9.51926      0.46567        -0.161630      0.159055     -0.896812
O       5.76376      9.48467     13.17288        -0.167568      0.153786     -0.035889
O       5.47102      9.45755      4.62377         0.693474     -0.222569      0.697807
O       5.68518      9.49350      8.92230        -0.018190      0.043819     -0.581158
O       9.51261      1.88442      0.43785        -0.042331     -0.057127      0.072016
O       9.35160      1.84021     13.18612         0.595632      0.015810     -0.611912
O       9.47613     13.33982      0.45574         0.056305     -0.028215     -0.994896
O       9.59048     13.26175     13.24881        -0.315284     -0.134560     -0.495261
O       9.42469      2.06125      4.75155         0.128293     -0.564711     -1.040357
O       9.57544     13.31869      4.66621        -0.060720     -0.041669     -0.050197
O       9.44692      1.81154      8.92740        -0.244319      0.025817     -0.587513
O       9.63923     13.33166      8.94146        -0.449207     -0.048256      0.784016
O       9.36644      5.83720      0.45514         0.399113     -0.498815     -0.054814
O       9.47833      5.63286     13.25952         0.099618      0.048774     -2.152253
O       9.48705      5.56374      4.61672        -0.104359      0.243563     -0.816838
O       9.53746      5.59398      9.04094        -0.464614      0.541285     -1.439976
O       9.47340      9.39149      0.61024        -0.093538      0.284895     -1.677961
O       9.39525      9.55322     13.22573         0.349437      0.189891     -0.512288
O       9.70041      9.61224      4.62437        -0.790131     -0.126551     -0.233777
O       9.50563      9.47033      8.87569        -0.101194     -0.348908      0.150245
O       3.80317      1.96404      2.51492        -0.650557      0.567753      0.151556
O       3.86412      1.97582     15.39378        -2.743584     -0.370646     -0.122993
O       3.90101     13.32185      2.57662        -0.905991     -0.165010      0.017199
O       3.70716     13.21490     15.32051         1.484004      0.070217     -0.119664
O      15.13044      2.04790      2.63667         0.911792     -0.744232     -0.244200
O      15.11358      2.06649     15.31254         1.052868     -0.881595      0.007219
O       0.06932     13.34401      2.48761         0.214445     -0.378746     -0.296717
O      15.19066     13.35973     15.33652         0.673218     -0.174883      0.256009
O       3.67925      1.88381      6.67010         0.683274      0.415253      0.144280
O       3.83890     13.32627      6.83815        -0.970964     -0.500758     -0.157927
O      15.13637      1.96936      6.68071        -0.488213      0.041913      0.691742
O      15.15163     13.25014      6.80792         0.602956      0.237401      0.501547
O       3.73305      1.97387     11.04454        -0.004867      0.173097      0.519119
O       3.83290     13.28804     11.12860         0.077679      0.008969     -0.262045
O      15.18570      1.82953     11.08614        -0.223689     -0.097128      0.334496
O       0.01162     13.34794     10.89186        -0.173023      0.363493      0.819717
O       3.78595      5.78597      2.60008        -0.167133     -0.631143     -0.257099
O       3.80005      5.64537     15.27656        -0.056301     -0.194374      0.210853
O      15.13051      5.66529      2.62893         0.629932      0.007403     -0.402309
O      15.10176      5.94952     15.31947         0.664823     -1.013203      0.022042
O       3.75495      5.68395      6.86850        -0.347451     -0.104834      0.203400
O      15.10659      5.60815      6.68185         0.097586      0.524348      0.060300
O       3.75595      5.60135     11.21312        -0.237153     -0.074473     -0.416711
O      15.15651      6.02865     10.90418         0.509486     -0.279054      0.549124
O       3.75915      9.47351      2.64251         0.037259      0.205348     -0.269166
O       3.73921      9.62855     15.17447         0.463417     -0.225697      0.347912
O      15.18034      9.50891      2.55898         0.536575      0.175428      0.502899
O      15.09765      9.42103     15.50550         1.410625      0.022618     -0.291372
O       3.67861      9.55271      6.84458         0.776095     -0.483622     -0.009571
O      15.14322      9.51970      6.95894         0.492150     -0.660235     -0.577882
O       3.78257      9.61589     11.08550         0.857304     -0.090655      0.210434
O       0.05891      9.28987     11.13323        -0.756755      0.228174     -0.109374
O       7.55214      1.92838      2.38610         0.743987     -0.143660      0.739131
O       7.56917      1.79030     15.30852         0.430225     -0.004222      0.546688
O       7.61051     13.46652      2.69450         0.816721     -0.583696     -0.332167
O       7.59120     13.41737     15.22018         0.031456     -0.053101      0.454561
O       7.50758      1.92977      6.80701         0.355335     -0.740311      0.277842
O       7.64084     13.28876      6.89279        -0.523482      0.559051     -0.257327
O       7.53114      1.82639     10.99323        -0.136799     -0.154177      0.216606
O       7.60099     13.45869     11.07552         0.064545     -0.173438      0.094903
O       7.56808      5.72211      2.58008         0.025563      0.296148      0.376277
O       7.59840      5.70178     15.35172         0.040102      0.066630     -0.215013
O       7.57164      5.70128      6.86169         0.183740      0.170537      0.384797
O       7.58071      5.81226     11.19156         0.328322     -0.151046     -0.191253
O       7.57553      9.52145      2.76049        -0.195482     -0.199391     -0.148372
O       7.58033      9.58259     15.34988         0.198513     -0.476065      0.079880
O       7.55820      9.38949      6.61875        -0.605366      0.092888      0.290726
O       7.63517      9.30204     11.06135        -1.167327      0.466847      0.010392
O      11.38165      1.94854      2.57509        -0.533933     -0.619359      0.404551
O      11.36954      1.94298     15.28498        -0.148687      0.279598      0.117174
O      11.46989     13.43761      2.53584         0.073546     -0.562580     -0.000002
O      11.40451     13.31037     15.28857         0.246299     -0.404584      0.401657
O      11.33104      1.88502      6.92885        -0.101288      0.221572     -0.232983
O      11.39461     13.19243      6.78509         0.488233     -0.100482      0.181258
O      11.36026      1.98829     10.94652         0.367530     -0.203002      0.433199
O      11.40542     13.21312     11.13027        -0.743149     -0.516638      0.586378
O      11.37312      5.76318      2.43561        -1.400827      0.081635      0.545020
O      11.38423      5.66887     15.27802        -0.742465      0.355572      0.389715
O      11.33029      5.66093      6.75328         0.354477      0.568848      0.259344
O      11.36549      5.59283     11.07419         0.316182     -0.140386      0.480658
O      11.41356      9.59209      2.63495        -0.486180     -0.268702     -0.060027
O      11.37930      9.48799     15.43041        -1.453807      0.711011      0.118927
O      11.35368      9.46332      6.78678         0.743477      0.334409      0.116703
O      11.34721      9.61216     11.08446         0.531486      0.336258      0.178197
O       1.84686      3.81228      2.68804         0.610135      0.266406     -0.360723
O       1.89171      3.78314     15.32277        -0.351756     -0.277524      0.358801
O       1.95877      0.05839      2.34943        -0.325056     -0.536707      0.302589
O       1.93632     15.17030     15.30529        -0.239378      0.863024      0.148087
O      13.29113      3.75218      2.59192        -0.561243      0.983169      0.171633
O      13.20057      3.89619     15.33450         0.578127     -0.586591     -0.166117
O      13.48091     15.18417      2.56739        -0.963165      0.027666     -0.426444
O      13.23354      0.00528     15.29458         0.489241     -0.053559      0.226012
O       1.82301      3.82572      6.70968         0.224907     -0.636321      0.249642
O       1.80923      0.01928      6.71413        -0.020665      0.019938      0.644745
O      13.13264      3.82839      6.83479         0.621212     -0.494194      0.030246
O      13.28839     15.18985      6.82979        -0.087352     -0.399934      0.131373
O       1.74075      3.81753     11.06960         0.079244     -0.267201     -0.002381
O       1.82679     15.14718     11.02554         0.730678      1.223913      0.355531
O      13.38887      3.81820     11.08726        -0.045871     -0.117980     -0.015543
O      13.22511      0.01451     11.00571        -0.043717     -0.160762      0.721883
O       1.86147      7.54166      2.54166        -0.217781      0.546507      0.113793
O       1.97003      7.51972     15.47012        -0.138945      1.322383     -0.177891
O      13.32012      7.57543      2.70122        -0.263024      0.381013     -0.306973
O      13.12680      7.66691     15.52389         0.283038     -1.495991     -0.581291
O       1.90776      7.55902      6.78704        -0.460370      0.311799      0.266156
O      13.26975      7.65119      6.57423        -0.017539     -1.503165      0.620728
O       2.12516      7.57297     11.00598        -0.052932      0.232364      0.358401
O      13.03616      7.60258     11.07964         0.489564      0.267312      0.134674
O       2.03794     11.45204      2.50221        -0.683418     -1.149622      0.172679
O       1.76417     11.37804     15.28293        -0.004566      0.095526      0.133622
O      13.37506     11.46237      2.61485        -0.212960      0.145399      0.035788
O      13.19699     11.33747     15.41228         0.514759      0.965956      0.022684
O       1.82501     11.38872      6.81522         0.200174     -0.360389      0.198700
O      13.37802     11.29534      6.80355        -0.542596      1.497601      0.213729
O       1.81971     11.42598     11.05684         0.445905     -0.681840     -0.257886
O      13.54407     11.38520     10.99463        -1.135761     -0.311182      0.106271
O       5.77266      3.88485      2.55769        -0.676969     -1.153000      0.217662
O       5.74249      3.76699     15.30547         0.366144      0.122036      0.034347
O       5.64321      0.01321      2.55965         0.331655      0.719809     -0.256417
O       5.61578     15.13348     15.44613        -0.298144      0.858138     -0.057179
O       5.75510      3.77654      6.65293        -0.588453      0.185551      0.605412
O       5.60420     15.18103      6.60646         0.619139      1.543646      0.921764
O       5.80242      3.87082     11.12734        -0.549801     -1.807732     -0.137216
O       5.59945      0.04537     10.74783        -0.277200      0.078584      0.962061
O       5.68505      7.64705      2.52290         0.171272     -0.812667      0.480557
O       5.64357      7.60521     15.27865         0.134354      0.251952      0.101812
O       5.67052      7.57388      6.83536        -0.236636      1.127074      0.560428
O       5.59887      7.62280     10.98658        -0.504536      0.797584      0.353598
O       5.82428     11.39763      2.54766        -0.485950      0.081257      0.489865
O       5.81061     11.42793     15.21758        -0.546860     -0.070288      0.609357
O       5.75748     11.37975      6.72453        -0.524346     -0.621703      0.226354
O       5.69756     11.48815     11.10928         0.482341     -1.901029      0.061516
O       9.55451      3.82532      2.54926        -0.444363     -0.532812     -0.026950
O       9.40163      3.79242     15.31973         0.150817     -0.329559      0.243249
O       9.58023     15.19547      2.53588        -0.401487      0.972783      0.565869
O       9.64403      0.02340     15.32286        -0.745130     -0.097674      0.056522
O       9.43798      3.84990      6.88390         0.028395     -1.196059      0.161639
O       9.55903     15.19156      6.69781        -0.468052      0.391713      0.346391
O       9.42053      3.72179     11.03870        -0.243982      0.540647      0.428335
O       9.60442     15.14790     11.15662        -0.147077      0.649447      0.002798
O       9.45634      7.64178      2.79745         0.194854     -1.860331     -0.048416
O       9.46701      7.62331     15.19669        -0.168031     -0.451642      0.479288
O       9.46315      7.57294      6.66531         0.154299     -0.115552      0.364528
O       9.55424      7.54118     11.02080         0.277447      0.729124      0.427221
O       9.49887     11.42484      2.59560         0.020698      0.551758     -0.175216
O       9.44162     11.41238     15.45898         0.395173     -0.330901     -0.163847
O       9.38443     11.34739      6.80620         0.477873      0.320221      0.135287
O       9.24447     11.34462     10.99274         0.532719      0.677080      0.164258
