  # total energy = -7879.64744287 
CRSYTAL
PRIMVEC
    15.6000000000000000    0.0000000000000000    0.0000000000000000
     0.0000000000000000   15.6000000000000000    0.0000000000000000
     0.0000000000000000    0.0000000000000000    17.640000000000000
PRESSURE
-5.01557 -4.71952 -5.54134 -0.258371 0.676468 -0.019575
PRIMCOORD
320 1
Pb       3.81133      3.90259      4.32762         0.579614      0.307423      0.281901
Pb       3.88464      3.86509     17.54685         0.084475      0.046254      0.334931
Pb       3.92782      0.10289      4.33522         0.172279     -0.598557      0.409327
Pb       3.87728     15.52563     17.56015         0.531245     -0.132673     -0.563328
Pb      15.57326      3.83948      4.39389        -0.030265     -0.142691     -0.556243
Pb      15.52155      3.92618     17.58062        -0.253482      0.032124     -0.199803
Pb      15.59146      0.05041      4.43600        -0.281203     -0.326724     -0.343700
Pb       0.01097     15.53084     17.51648        -0.288420      0.428127      0.247526
Pb       3.93213      3.83169      8.74802         0.222732      0.125739      0.060705
Pb       3.92786     15.52036      8.72637        -0.144564     -0.096309      0.076863
Pb      15.53984      3.90190      8.77094         0.447883     -0.366752      0.093460
Pb       0.02357     15.39833      8.76157         0.074440      1.050837      0.039893
Pb       3.85690      3.86296     13.26831        -0.062874     -0.462199     -0.200119
Pb       3.78674     15.52171     13.14151         0.285312     -0.018491      0.071470
Pb      15.50480      3.86514     13.03688         0.063433     -0.199362      0.440958
Pb      15.56423     15.56877     13.12550        -0.090436      0.582358     -0.323387
Pb       3.86662      7.73991      4.49228         0.001053      0.108390     -0.602268
Pb       3.83010      7.69816      0.00680        -0.198241      0.228820     -0.291936
Pb      15.53965      7.90339      4.33129         0.645311     -0.250654      0.043697
Pb      15.58429      7.73220     17.58748        -0.032974      0.010556      0.249014
Pb       3.95690      7.74441      8.68661         0.237232      0.118148      0.161136
Pb      15.52687      7.67377      8.79456         0.351932      0.208466      0.062182
Pb       3.80611      7.65041     13.16793         0.738757      0.455983      0.370520
Pb       0.04430      7.76348     13.20949        -0.867731      0.066104      0.188051
Pb       3.89238     11.73722      4.38572        -0.741545      0.085942     -0.671435
Pb       3.84842     11.70744      0.05125         0.369808     -0.213026     -0.415068
Pb      15.54289     11.73231      4.39751         0.678564      0.171552     -0.364140
Pb      15.55833     11.72578     17.56145        -0.056015     -0.400408      0.556325
Pb       3.82409     11.59116      8.76141         0.095445      0.220265     -0.100977
Pb      15.54817     11.73199      8.75384         0.734270     -0.606576     -0.404980
Pb       3.85628     11.72510     13.16337         0.196895      0.124172      0.188609
Pb      15.51598     11.65997     13.07975         1.005435     -0.588706      0.223277
Pb       7.68509      3.94978      4.34440         0.018443     -0.199363      0.075661
Pb       7.72033      3.87651     17.54302         0.185044     -0.415667      0.244084
Pb       7.77763      0.14905      4.34437         0.620177      0.034734      0.041767
Pb       7.85073      0.05705     17.49761        -0.344105     -0.283014      0.146858
Pb       7.70386      3.80849      8.86459         0.160201     -0.371440     -0.403438
Pb       7.75085     15.50430      8.87585        -0.027507      0.486742     -0.641713
Pb       7.73854      3.92286     13.18290         0.855084     -0.246811      0.051860
Pb       7.75951     15.54750     13.19442        -0.276664      0.032338     -0.066415
Pb       7.75957      8.00408      4.35793         0.292091     -1.062107      1.105546
Pb       7.73871      7.81776      0.08904         0.090635      0.384949     -0.659574
Pb       7.75220      7.76848      8.74399        -0.327392      0.262074      0.107720
Pb       7.59073      7.78639     13.16915         0.544054     -0.053950     -0.225487
Pb       7.84236     11.80906      4.37027         0.525877     -0.002844      0.109392
Pb       7.74794     11.62919     17.63959         0.170886      0.281511     -0.597812
Pb       7.73675     11.69176      8.78566         0.182011     -0.324553     -0.097456
Pb       7.86634     11.58736     13.23753        -0.421029      0.386896     -0.624151
Pb      11.60852      3.94128      4.37961         0.499892     -0.022569     -0.016371
Pb      11.73987      3.88701     17.58369        -0.085902      0.140905     -0.215976
Pb      11.72905      0.16569      4.44814        -0.418830     -0.685212     -0.115173
Pb      11.63909     15.57053     17.56139        -0.053584      0.021736      0.014297
Pb      11.66341      3.83719      8.75956         0.018646     -0.133546      0.394104
Pb      11.76228      0.01011      8.88763         0.152613     -0.108520     -0.869452
Pb      11.55761      3.84887     13.20260        -0.101415     -0.153767     -0.327903
Pb      11.66144     15.45836     13.10053         0.556424      0.525202      0.223149
Pb      11.59958      7.83074      4.41344         0.042606      0.146705     -0.287113
Pb      11.47854      7.82651     17.62332         0.570695      0.038806     -0.327046
Pb      11.65451      7.76368      8.70093         0.208921      0.286013      0.741533
Pb      11.56947      7.75390     13.18178         0.536543     -0.183148     -0.002879
Pb      11.72624     11.88110      4.29155        -0.491678     -0.371323      0.714969
Pb      11.80364     11.66076     17.53980        -0.540965      0.319889      0.139405
Pb      11.73612     11.55780      8.70434        -0.349476      0.052641     -0.285640
Pb      11.68712     11.62869     13.08592        -0.353940      0.033279     -0.006405
Ti       2.01153      1.89727      2.34671        -1.124123      1.272312     -0.906165
Ti       1.94710      1.88255     15.57093        -0.237234      0.841968     -1.369740
Ti       1.92600     13.82641      2.24961        -0.205731     -2.145630      0.211041
Ti       1.95459     13.53282     15.69790         1.189022      0.409562     -1.920333
Ti      13.64595      1.88793      2.38137         0.312498     -0.103271     -0.926053
Ti      13.64725      1.94817     15.62539        -0.661041      0.327720     -1.940942
Ti      13.59607     13.57805      2.31236         0.487599      1.313538      0.547555
Ti      13.66425     13.68947     15.50798        -0.411773     -0.216662     -0.734779
Ti       1.98410      1.99570      6.80841        -0.780823     -1.039188      0.751051
Ti       1.98229     13.65398      6.83380         0.441784     -0.771734     -1.123502
Ti      13.68898      1.87022      6.76290         0.431634     -0.768440      0.626504
Ti      13.70371     13.57904      6.78887        -0.673292      0.872576     -0.983785
Ti       2.00310      1.92726     11.16742        -0.259435     -0.616088     -0.544388
Ti       1.86568     13.59145     11.16682         2.088493     -0.382352     -2.050149
Ti      13.68092      1.93114     11.10660        -0.159983     -0.163417     -0.837072
Ti      13.68002     13.59789     11.11780        -0.667614      1.038577     -0.606417
Ti       1.96217      5.87415      2.36741         0.985862      0.527369      0.524224
Ti       1.96447      5.75402     15.55070        -0.705896      0.589880     -0.889272
Ti      13.70698      5.80809      2.41405        -0.004545     -0.310066     -0.884960
Ti      13.56703      5.91468     15.59932        -0.109644      0.024084      0.384847
Ti       1.96938      5.81257      6.70225         0.297712      0.201250     -0.015404
Ti      13.63033      5.73279      6.90362         0.314787      0.281200     -1.323137
Ti       1.97965      5.74007     11.26036        -0.236388     -0.155967     -1.057492
Ti      13.64082      5.82229     11.13761        -0.180416      0.383708     -0.466311
Ti       1.97111      9.75603      2.38987         0.454597      0.286046     -0.887173
Ti       1.90517      9.68602     15.64236         0.016168      0.220266     -0.787484
Ti      13.64548      9.73243      2.41597         0.420024      0.617050     -0.661853
Ti      13.61713      9.72324     15.69374         0.051566     -0.886313      0.099426
Ti       1.99260      9.62905      6.75967        -0.484462      1.082626      0.723596
Ti      13.71145      9.66686      6.78602         0.072111      0.170569     -0.253271
Ti       2.02584      9.56393     11.19301        -0.389479      1.842119     -1.568747
Ti      13.66053      9.72856     11.08310        -0.188078     -1.587159     -0.657717
Ti       5.78432      1.97814      2.35691         0.901581      0.792193     -0.464457
Ti       5.77078      1.98866     15.55208         0.974639     -0.871984     -0.202849
Ti       5.90147     13.61248      2.33856        -0.826951      0.180772     -1.632533
Ti       5.92746     13.61154     15.62545         0.012868     -0.253762      0.246486
Ti       5.84415      1.92833      6.75808         0.930814     -0.307254      0.471886
Ti       5.91997     13.62410      6.72552        -0.584545      0.486534      1.105909
Ti       5.88727      2.02475     11.26482        -0.218897     -0.778040     -0.668162
Ti       5.77493     13.72591     11.18337         0.168082     -1.119402     -0.522527
Ti       5.91343      5.88095      2.34268        -0.725964     -0.701933      0.697056
Ti       5.84575      5.87473     15.61506         0.309870     -0.120781      0.861878
Ti       5.85787      5.83827      6.74247         0.355653     -0.197650     -0.014593
Ti       5.85296      5.80156     11.12337         0.333210      0.397436     -1.181710
Ti       5.87494      9.76381      2.45797        -0.601305     -0.026422     -0.105593
Ti       5.84689      9.70496     15.59283        -0.018808      0.481227     -0.606687
Ti       5.88137      9.80150      6.73680         0.485972     -0.969008     -0.194248
Ti       5.86137      9.76412     11.19027         0.327636      0.188510     -1.388740
Ti       9.80973      2.13770      2.35718        -0.590134     -1.921004     -0.971222
Ti       9.75998      1.95196     15.60378        -1.055340      0.404822     -1.480507
Ti       9.73118     13.71981      2.32113         0.819138      0.029976      0.044332
Ti       9.80888     13.62693     15.54921        -0.945503     -0.907603      0.437511
Ti       9.80825      1.95234      6.90679        -1.231164     -1.304933     -1.554633
Ti       9.87354     13.62780      6.88096        -0.361210      0.140805     -1.647511
Ti       9.80795      1.78670     11.20776        -0.530055      2.106108      0.153122
Ti       9.68102     13.62873     11.09172         0.010051     -0.704158     -0.694426
Ti       9.79330      5.87035      2.26776        -0.396463     -0.019492      1.228529
Ti       9.68126      5.78741     15.60250         0.986850      0.293668     -1.472208
Ti       9.71855      5.80855      6.86719        -0.567082     -0.441818      0.488327
Ti       9.72770      5.80092     11.14974         0.068198     -0.140717     -0.370662
Ti       9.73745      9.76536      2.37136         0.624726      0.204964     -1.025509
Ti       9.70893      9.74736     15.49622        -0.089787     -0.194399      1.136017
Ti       9.75302      9.68202      6.78679         0.131759      1.681396     -0.742623
Ti       9.75561      9.68141     11.13252         0.109579     -0.217525     -0.368592
O       1.93681      1.96928      0.56100         0.218482     -0.323094      0.509448
O       1.96633      2.07130     13.75086        -0.136342     -1.014717      1.729093
O       1.86341     13.66767      0.41543         0.382299      0.447304      0.954235
O       2.23329     13.53193     13.86346        -1.151351      0.283562      1.336517
O      13.71062      1.99178      0.58949        -0.206115     -0.110813      0.395167
O      13.50072      1.91232     13.82020         0.638083      0.096874      1.341616
O      13.69288     13.51676      0.55896        -0.071878      0.169861     -0.477207
O      13.53770     13.66275     13.70433         0.654275      0.042720      0.664517
O       1.99241      1.95926      5.06825         0.033150     -0.275702     -0.497906
O       2.04439     13.62480      5.02998        -0.290726      0.238572      0.615326
O      13.58972      1.76808      4.99237         0.363210      0.504085     -0.281934
O      13.64172     13.61347      4.99961         0.197159     -0.086544      0.531260
O       2.06802      1.84228      9.41419        -0.062679      0.512744      0.334386
O       1.85437     13.57827      9.30343         0.026583     -0.172870      1.820574
O      13.72184      1.83910      9.32031        -0.350226      0.304848      0.817094
O      13.80065     13.61398      9.31045        -0.515634     -0.241916      1.790666
O       2.05720      5.87095      0.59846        -0.163928     -0.040968      0.272461
O       2.01147      5.78606     13.71492        -0.097569      0.411488      0.683163
O      13.78033      5.73249      0.63691        -0.085689     -0.081274      1.245545
O      13.58100      6.04081     13.86242         0.272830     -0.254957     -0.158430
O       2.09565      5.90819      4.92877        -0.433727     -0.569613      1.096591
O      13.59113      5.73947      5.11490         0.205175      0.072617      0.657624
O       1.93127      5.73865      9.49278         0.039777      0.299710      0.854286
O      13.85979      5.80768      9.33577        -0.594571     -0.130848      0.607146
O       2.06905      9.78645      0.57758        -0.077234     -0.201758      0.425612
O       1.78686      9.70306     13.86118         0.206256      0.215380      0.337137
O      13.68631     10.07314      0.66143        -0.078997     -0.584124      0.575039
O      13.53564      9.49666     13.98339         0.356571      0.633391     -0.333347
O       2.02434      9.55563      5.02478         0.093567      0.373081     -0.188338
O      13.77989      9.63488      5.00148        -0.130788     -0.020813      0.305525
O       2.05891      9.55877      9.34912         0.136207     -0.011818      2.301164
O      13.61111      9.87338      9.27786         0.047130     -0.467147      1.219973
O       5.84561      2.30427      0.60333        -0.191567     -0.966218      0.703142
O       5.68618      1.99194     13.78001         0.428052     -0.108584      0.493119
O       5.95111     13.48327      0.50950        -0.118589      0.347255      2.013814
O       5.97134     13.64693     13.87087        -0.218789      0.092386     -0.198349
O       5.88414      1.87118      4.98678         0.060822     -0.245505      0.026207
O       5.88621     13.85018      4.97258        -0.053339     -0.762714      0.142594
O       5.91478      2.02634      9.45617        -0.335578     -0.096717      1.068607
O       5.78042     13.73875      9.40486         0.309526     -0.232991      0.862330
O       5.73912      5.77084      0.60045         0.142383      0.160643      0.004260
O       5.98986      5.95984     13.88356        -0.603320     -0.128284     -0.024432
O       5.83510      5.73318      4.98404         0.301361      0.291952      0.346162
O       5.86450      5.69920      9.32173         0.097563      0.117925      0.842660
O       6.05617      9.84658      0.67212        -0.380005     -0.331511      0.744876
O       5.90970      9.54766     13.80316         0.358490      0.204935      0.341476
O       5.95501      9.68820      4.91226        -0.086837      0.365160      0.899299
O       5.88324      9.73015      9.36653        -0.165299     -0.049518      1.907061
O       9.75655      2.02400      0.56648         0.118580     -0.188546      0.796561
O       9.59927      2.08692     13.75049         0.740868     -0.744809      1.708750
O       9.82544     13.67574      0.55395        -0.132798      0.286786      0.640377
O       9.77116     13.56889     13.78495        -0.046508      0.313024      0.139971
O       9.72974      1.93457      5.11233         0.345378      0.423421      0.294663
O       9.88134     13.45448      5.05337        -0.218552      0.281424      1.048974
O       9.65953      1.85961      9.46093         0.601940     -0.149531     -0.531721
O       9.76532     13.63610      9.26715        -0.125776      0.106482      1.513761
O       9.99522      5.83786      0.56476        -0.486721      0.107396     -0.661483
O       9.74338      5.73458     13.76873        -0.193338     -0.072430      1.388502
O       9.75357      5.79945      5.13509         0.401039      0.021734     -0.266826
O       9.75569      5.75973      9.34426        -0.072470      0.224310      1.339896
O       9.68458      9.60697      0.52891         0.032037      0.393479      1.855441
O       9.69479      9.65724     13.73219         0.070651      0.407443      0.358390
O       9.85171      9.62991      4.99065        -0.375635     -0.204546      0.484863
O       9.88638      9.71052      9.35021        -0.114347      0.104693      0.799537
O       3.92387      1.95358      2.83778        -0.408737     -0.411469     -0.461316
O       3.91076      1.97747     15.98283        -0.785832     -0.185578      0.145868
O       3.87908     13.58758      2.52634         0.296480      0.412416      0.487651
O       3.97032     13.59820     16.09264        -0.716216      0.275486      0.260423
O      15.57486      1.82592      2.82605         0.415475      0.329054      0.147929
O      15.53377      1.96784     15.92724         1.144794     -0.038954      0.079649
O       0.06537     13.70885      2.63528         0.332561     -0.159881      0.395607
O       0.03513     13.84807     15.90155        -0.135571     -0.944129     -0.345504
O       3.92414      1.84392      7.16672         0.302649     -0.214613      0.049784
O       3.87029     13.60991      7.13892         0.975113      0.059104      0.243569
O       0.04808      1.89792      7.06778         0.260830      0.378205      0.133107
O      15.56692     13.57943      7.18399         0.702426     -0.136793     -0.042954
O       3.83776      2.06190     11.67716         0.407787     -0.492209     -0.303427
O       3.86757     13.57801     11.55300         0.349831      0.360304      0.123744
O      15.59933      1.84299     11.53149        -0.000670      0.339050      0.503617
O       0.04845     13.66965     11.55360        -1.771078     -0.479147      0.443507
O       3.95988      5.94386      2.89793        -0.234953     -0.319092     -0.665563
O       3.82333      5.80133     16.09359         1.232217      0.673402     -0.554148
O       0.16536      5.76078      2.86547        -1.393682     -0.179508     -0.164025
O       0.06094      5.92288     16.05288         0.072720     -0.263302     -0.310256
O       4.01664      5.80884      7.22599        -1.283204     -0.263386     -0.337144
O      15.59719      5.78358      7.24420         1.087183      0.072837     -0.549038
O       3.97422      5.82552     11.51285        -1.448425     -0.056809      0.491741
O      15.50161      5.86053     11.63444         1.004932     -0.017403      0.134501
O       3.97969      9.66347      2.89741         0.547990      0.050070     -0.482916
O       4.03549      9.80434     15.89169        -1.283068     -0.305494      0.587240
O       0.11566      9.77116      2.86487        -1.223123      0.129642     -0.025492
O      15.55028      9.56259     16.08842         0.336453      1.009978     -0.177897
O       4.05591      9.73313      7.29804        -1.590316     -0.401024     -0.765724
O       0.08070      9.64096      7.18431        -0.404354     -0.114239     -0.151242
O       3.95853      9.82055     11.71227        -0.863261     -1.235855     -0.721953
O       0.00046      9.67456     11.50198         0.207612      0.465946      0.229640
O       7.93140      1.98237      2.87524        -0.932360      0.112914     -0.436584
O       7.77607      1.94943     16.06717         0.187326      0.111907     -0.308438
O       7.78025     13.61209      2.78792         0.265514      0.199771     -0.180644
O       7.84612     13.65255     16.02480         0.365173      0.076350     -0.125058
O       7.79476      1.94533      7.30910         0.059641     -0.364606     -0.223684
O       7.77186     13.46172      7.23593         0.299541      0.587622     -0.457649
O       7.73887      1.87763     11.58226         0.087031     -0.030183      0.288672
O       7.81173     13.76004     11.58190         0.366181     -0.355546     -0.339160
O       7.86483      5.60080      2.59086        -0.157092      0.669145     -0.049565
O       7.81920      5.88095     16.12815        -0.058392     -0.353786     -0.413582
O       7.80280      5.88875      7.20144         0.378016     -0.505261     -0.080771
O       7.73394      5.78114     11.60795         1.153760      0.030857     -0.369782
O       7.90349      9.72211      2.97525        -0.385306      0.943482     -1.071518
O       7.80589      9.75693     16.07547         0.660901     -0.532924     -0.421995
O       7.79409      9.75157      7.23751         0.225212     -0.038931     -0.312161
O       7.85394      9.64386     11.52205        -0.494904      0.111269      0.178337
O      11.69380      1.95908      2.77579         0.379569      0.046757      0.227864
O      11.60159      2.01978     16.01047         1.307523     -0.727796      0.075365
O      11.72539     13.53144      2.67855        -0.467487      0.036036     -0.091330
O      11.72737     13.61452     15.91339         0.476837      0.354328      0.220393
O      11.76471      1.88044      7.19765        -0.123762      0.247838      0.426698
O      11.78444     13.78851      7.22087        -0.132108     -0.983256      0.253489
O      11.72281      1.84425     11.59596        -0.245750      0.257624     -0.362502
O      11.67724     13.70128     11.55336         0.527038     -0.804890     -0.596460
O      11.83242      5.76423      2.86783        -0.717568      0.787483     -0.346948
O      11.70081      5.80852     15.96023        -0.439535     -0.004519      0.226117
O      11.72468      5.78217      7.34774        -0.306578      0.045874     -0.501524
O      11.76830      5.81272     11.55130        -0.906214     -0.311963     -0.141176
O      11.75641      9.61446      2.79568        -0.026088      0.353857     -0.241049
O      11.68947      9.78929     16.10430         0.068130     -0.096402     -0.385004
O      11.73537      9.76736      7.06966         0.403691     -0.613444      0.401876
O      11.68993      9.64353     11.66273         0.253107      1.119114     -0.416855
O       2.01954      3.74529      2.79157        -0.330896      1.213560     -0.067116
O       2.04247      3.94015     15.75538        -0.549718     -1.245376      0.905908
O       2.00293      0.03919      2.84564         0.116886     -0.617472     -0.471098
O       2.00310     15.59417     16.00562         0.113211      0.625920     -0.188460
O      13.66956      3.82633      2.78196         0.526584      0.424604      0.456273
O      13.63681      3.97494     16.03698         0.368055     -0.773929     -0.101858
O      13.58665     15.50121      2.73673         0.109410      0.797341      0.078425
O      13.66315      0.00924     15.96544        -0.436076     -0.055639      0.183465
O       2.06735      3.86886      7.23542        -0.354985      0.602029     -0.480682
O       1.89538     15.51081      7.32954         0.411153      0.527827     -0.769477
O      13.77363      3.77932      7.22382        -0.757831      0.878812     -0.126485
O      13.78989     15.56951      7.18072        -0.403808     -0.124118      0.028715
O       1.85677      3.86038     11.61247         0.107872      0.542435     -0.184028
O       1.95477     15.51345     11.52169         0.135168      0.383046      0.576865
O      13.64561      3.85725     11.46031         0.220189      0.071602      0.167763
O      13.63731      0.02564     11.49634         0.262035     -1.772124      0.346714
O       1.97124      7.83890      2.77853         0.048125     -1.169776     -0.106942
O       2.00689      7.87534     15.92710         0.482512     -1.338190      0.531413
O      13.86801      7.83363      2.63432        -0.451560     -0.764143      0.190886
O      13.58229      7.77600     16.34056         0.029041      0.225038     -0.826343
O       2.07584      7.69336      7.08417        -0.035257     -0.340509      0.379511
O      13.69754      7.74101      7.32269        -0.356902      0.163968     -0.632107
O       1.93389      7.75632     11.78254         0.397431     -0.135920     -1.033320
O      13.60629      7.85651     11.48261         0.274339     -0.419253     -0.278805
O       2.02360     11.61983      2.77081         0.168809      0.970851      0.279115
O       1.94621     11.65854     16.02047        -0.265730      0.455390      0.110088
O      13.71796     11.76243      2.89811         0.190530     -1.188746     -0.153940
O      13.81880     11.78381     15.95483        -0.485013     -0.519089     -0.327600
O       1.96663     11.61359      7.13177         0.096659     -0.285064      0.230619
O      13.73467     11.64972      7.16921        -0.323780     -0.213747     -0.193634
O       2.02494     11.67462     11.61888        -0.967712     -0.350727     -0.117718
O      13.65565     11.65287     11.57539        -0.062623      0.727168     -0.122461
O       5.72688      3.86550      2.89280         0.724339      0.363637     -0.166833
O       5.88331      3.87700     15.94734        -0.258069      0.939626     -0.026355
O       5.81383      0.07646      2.66752         0.328920     -0.924194     -0.046162
O       5.89818      0.03030     16.00457        -0.415050      0.031623      0.205985
O       5.86402      3.76550      7.11767        -0.035982      0.980415      0.195091
O       5.98176     15.48586      7.33330        -0.632384      0.351183     -0.827832
O       5.83714      3.90108     11.71245        -0.042141     -0.068456     -0.415578
O       5.80390     15.56885     11.67766        -0.270074      0.541444     -0.113110
O       6.11472      7.76615      2.73099        -0.563667      0.029301     -0.437023
O       5.92151      7.71860     16.12525        -0.422915      0.539909     -0.033334
O       5.84741      7.78935      7.08112         0.285168     -0.277443      0.239826
O       5.89263      7.71644     11.47618        -0.327296      0.551070      0.319374
O       5.84503     11.67883      2.85564         0.338824      0.485599     -0.118994
O       5.93690     11.68019     15.96432         0.167084     -0.303623      0.071694
O       5.82421     11.60795      7.32268         0.106624      1.275556     -0.952769
O       5.92176     11.70069     11.57891         0.215211     -0.282452      0.054566
O       9.84269      3.94101      2.68914         0.337099      0.612730      0.471597
O       9.79806      3.83292     16.00334        -0.575860      1.074321      0.023991
O       9.91469     15.54002      2.86614        -0.875943     -0.044185     -0.611994
O       9.72847     15.56818     16.07127         0.476529      0.332564     -0.536630
O       9.78880      3.81173      7.30675         0.061766      1.439774     -0.182566
O       9.84744     15.59284      7.01799        -0.583682     -0.677239      1.040727
O       9.70821      3.77318     11.58617         0.279579      1.213803     -0.084618
O       9.76774     15.55998     11.53301        -0.149052     -1.085833      0.289459
O       9.75819      7.78376      2.72420         0.152549     -0.731294      0.176197
O       9.85092      7.74184     15.90918        -0.384485      0.372957      0.155422
O       9.70662      7.87448      7.32322         0.552731     -1.725266     -0.544397
O       9.85958      7.71789     11.54692        -0.742969     -0.329599     -0.475298
O       9.77082     11.65795      2.70301        -0.141433     -0.062610      0.108398
O       9.80712     11.66301     15.87999        -0.252350      0.001114     -0.102666
O       9.80993     11.63760      7.17001         0.129252      0.105737      0.414794
O       9.66614     11.63792     11.54434         0.552883      0.720537      0.022964
