  # total energy = -7859.90178485 
CRSYTAL
PRIMVEC
    15.010000000000000    0.0000000000000000    0.0000000000000000
     0.0000000000000000   15.010000000000000    0.0000000000000000
     0.0000000000000000    0.0000000000000000    16.400000000000000
PRESSURE
15.5976 15.4592 9.29977 -0.156421 0.012283 0.033769
PRIMCOORD
320 1
Pb       3.96795      3.70839      4.41776        -0.552471      0.389291     -1.430761
Pb       3.82873      3.79308      0.17645        -0.084296     -0.202590     -0.037756
Pb       3.62941      0.15630      4.15077         1.119122     -0.621904     -0.045325
Pb       3.71475      0.01696     16.35638         0.103430      0.026500      0.703994
Pb      14.98405      3.64536      4.04648         0.211950      0.472275      0.008236
Pb       0.06353      3.73250     16.36571        -0.189230      0.081825      0.492198
Pb       0.05427      0.03281      4.16250        -0.523680     -0.308920     -0.224520
Pb      14.89970      0.01205      0.03556         0.196535      0.257556     -0.136936
Pb       3.81998      3.67223      8.34471         0.456611      0.297783     -0.617404
Pb       3.79418     14.79927      8.34413         0.502855      0.663089     -0.699288
Pb       0.17199      3.80212      8.33340        -1.012727     -0.751372      0.063742
Pb       0.03534     14.87834      8.22754         0.054492      0.884084      0.602320
Pb       3.75150      3.75963     12.22615         0.338790      0.842404      0.317448
Pb       3.73864     15.00956     12.52900         0.248764     -0.790030     -0.812765
Pb       0.08837      3.69905     12.33957        -0.447357      0.301256     -1.028412
Pb       0.03194      0.03046     12.31921         0.150755     -0.527817     -0.144604
Pb       3.49900      7.53093      4.11799         0.753167     -0.704732     -0.228693
Pb       3.72189      7.37007      0.29602         0.521382      0.438775     -1.330402
Pb      14.85002      7.47547      4.12166         0.460494     -0.264098     -0.413275
Pb      14.92739      7.55550      0.05440        -0.495435     -0.240256      0.021388
Pb       3.69862      7.51426      8.06350         0.089695      0.114840      1.093246
Pb      14.98789      7.47898      8.26488        -0.160739      0.452313     -0.092037
Pb       3.75343      7.59957     12.30408         0.125085     -0.563895      0.417982
Pb       0.08922      7.31470     12.36263        -0.495417      0.979335     -0.183391
Pb       3.50727     11.32334      4.20388         0.785859     -0.034145     -0.626257
Pb       3.66097     11.07574     16.32028         1.257860      0.605621     -0.110914
Pb      14.93420     11.27982      4.10392        -0.002365     -0.035676     -0.341659
Pb      14.88110     11.36852      0.03750         0.082836     -0.771270     -0.150109
Pb       3.66090     11.10937      8.32518        -0.000816      0.377109     -0.629081
Pb      14.96683     11.14379      8.26397         0.048831      0.056798     -0.297778
Pb       3.71754     11.33358     12.37888        -0.134317     -0.265593      0.094929
Pb      14.99895     11.29088     12.34216         0.527239      0.393129      0.270973
Pb       7.58060      3.65849      4.22230        -0.660721     -0.236615     -0.769687
Pb       7.59375      3.83697     16.38642        -0.716343     -0.295458      0.174982
Pb       7.49330     14.94857      4.27416        -0.666238     -0.021488     -0.656277
Pb       7.35508      0.04059      0.02243         1.111121      0.391068      0.069882
Pb       7.56790      3.66322      8.25310        -0.238623      0.117280     -0.175121
Pb       7.55694     14.93758      8.32562        -0.454266      0.221388     -0.240137
Pb       7.51586      3.71758     12.24719         0.669343      0.287047      0.501314
Pb       7.61153     14.82870     12.47993        -0.216704      1.098776      0.080673
Pb       7.25899      7.55973      4.05884         1.069497      0.022997      0.376905
Pb       7.52353      7.51926      0.11336        -0.944503     -0.286327     -0.596709
Pb       7.46753      7.51360      8.40864         0.459126      0.433162     -0.700929
Pb       7.59843      7.39889     12.55928        -1.198438      0.044107     -1.106597
Pb       7.41232     11.38185      4.10844         0.071174     -0.608383     -0.618778
Pb       7.52743     11.28748      0.11905         0.077707     -0.589323     -0.393830
Pb       7.37369     11.17369      8.33627         0.655690     -0.233466     -0.192447
Pb       7.52775     11.13853     12.42437         0.075415     -0.159306     -0.126189
Pb      11.13638      3.73854      4.16380         0.770818      0.089200     -0.382755
Pb      11.29014      3.79870     16.38590        -0.572461     -0.148682      0.267197
Pb      11.35557      0.04888      4.25133        -0.001197     -0.242562     -0.158607
Pb      11.03928     14.97395      0.16848         0.366566      0.239187     -0.994649
Pb      11.40695      3.80780      8.14240        -0.507738     -0.042093      0.473941
Pb      11.28114     14.86707      8.30385         0.435322      0.273129     -0.397187
Pb      11.36305      3.71922     12.23577        -0.545848      0.865138      0.035511
Pb      11.29984      0.15843     12.30639        -0.091068     -0.672237      0.073623
Pb      11.16265      7.45124      4.21479        -0.029722      0.021964     -0.418477
Pb      11.10008      7.49804      0.16355         0.756527      0.057040     -0.612664
Pb      11.07961      7.46957      8.20654         0.285806     -0.023902     -0.192218
Pb      11.36692      7.34753     12.30510        -0.187331      0.236887      0.427095
Pb      11.25839     11.30653      4.19219        -0.167818     -0.527332     -0.368130
Pb      11.23177     11.12740      0.08631        -0.269331      0.179728     -0.276162
Pb      11.02340     11.11295      8.33287         0.226253      0.053496      0.037841
Pb      11.20414     11.29602     12.26721         0.368454     -0.066946      0.339991
Ti       1.83000      1.82445      2.03854         0.570922      1.309062      0.049087
Ti       1.91491      1.89793     14.34193        -0.626358     -0.258259      0.082888
Ti       1.86565     13.15747      1.93356         0.173310      0.023725      1.193291
Ti       1.91251     13.14963     14.44841        -1.090672     -0.774426     -0.332141
Ti      13.04190      1.94347      2.03146         1.153592     -0.390154     -0.202996
Ti      13.13248      1.90916     14.29077        -0.744664     -0.103772      1.025030
Ti      13.04137     13.17043      2.07026         0.584904     -0.942976      0.046917
Ti      13.07367     13.18352     14.45981         0.214332     -0.808173     -1.577394
Ti       1.90167      1.91036      6.22140        -0.350667     -0.844842     -0.448919
Ti       1.82926     13.16092      6.14429         0.494521     -0.354858      1.626486
Ti      13.19526      1.92356      6.21027        -0.849153     -1.192399     -0.500011
Ti      13.09427     13.03529      6.22506         0.488641      0.314897     -0.253877
Ti       2.08085      1.83958     10.19801        -2.449287     -0.345380      0.538379
Ti       1.99535     13.07877     10.20183        -0.953281     -0.302262      0.953689
Ti      13.21952      1.90424     10.22057         0.808334      0.188617     -0.029744
Ti      13.22664     13.19354     10.22968        -0.559556     -0.861082      0.372418
Ti       1.81578      5.62791      2.05000        -0.392184     -0.664395      0.873062
Ti       1.91594      5.56972     14.28552         0.195836      1.033574      0.758697
Ti      13.07234      5.66099      1.98982        -0.008910     -0.380079      0.131000
Ti      13.19321      5.63178     14.33009        -1.032088      0.169600     -0.238295
Ti       1.84356      5.61560      6.18396        -0.388875     -0.609283     -1.229389
Ti      13.17761      5.59979      6.14296        -1.469571      0.138071     -0.704331
Ti       1.90690      5.65758     10.15328         0.404084     -1.002840      1.504498
Ti      13.20829      5.68163     10.14235        -1.683520     -0.946240      1.494500
Ti       1.90255      9.47338      2.01176        -0.631507     -0.387840      0.774596
Ti       1.81007      9.29915     14.52129         0.439566      0.569011     -2.271338
Ti      13.16156      9.37704      2.02798        -1.127320      0.386550     -0.386565
Ti      13.10723      9.46417     14.17097        -0.603977     -0.999243      2.623776
Ti       1.79214      9.35021      6.14770        -0.058766      0.638705     -0.180267
Ti      13.00621      9.29218      6.10265         0.098559      0.873722      0.612341
Ti       1.87411      9.31193     10.33748        -0.669849      0.929836      0.017187
Ti      13.08860      9.43272     10.23750        -0.224984     -1.196648      0.024111
Ti       5.63873      1.90365      2.08240        -0.774909     -0.104236      0.722671
Ti       5.60486      1.86511     14.34612         1.090453      1.368525      0.260615
Ti       5.54150     13.15510      1.86434         0.344939     -0.614789      1.490821
Ti       5.71136     13.08534     14.39431        -1.266190     -0.416487     -0.423621
Ti       5.69840      1.86882      6.28746        -0.535427     -0.881443      0.676228
Ti       5.56496     13.05095      6.21350        -0.542296      0.326352     -0.646823
Ti       5.75687      1.87259     10.43740        -0.290668     -1.234460     -1.190793
Ti       5.74940     13.12283     10.27826        -1.655210     -0.217782      1.099233
Ti       5.53356      5.66712      2.26972         0.144622     -1.364450     -0.612382
Ti       5.56507      5.62162     14.34141         0.156144     -0.611446     -0.355500
Ti       5.67108      5.76486      6.26181        -0.151163     -1.334947     -0.707632
Ti       5.67203      5.69033     10.13649        -0.816969     -0.202471      2.277014
Ti       5.62144      9.38620      2.01967        -0.436001      0.639458     -0.791667
Ti       5.60210      9.28854     14.26494         0.418656      0.422640      2.324977
Ti       5.56040      9.39318      6.01975         0.116305      1.384539      0.078984
Ti       5.55644      9.36691     10.25742         0.813714      0.413345      1.627354
Ti       9.35401      1.86242      2.02744         0.021958      0.903357     -0.469078
Ti       9.38012      1.91542     14.37609        -0.586374     -1.236240      0.307860
Ti       9.36653     13.11439      2.14230        -1.331497     -0.592708     -0.706364
Ti       9.44318     13.08937     14.32235        -0.181619      0.195777      0.700177
Ti       9.48059      1.76157      6.19331        -0.105530      1.039859     -0.342495
Ti       9.28222     13.04098      6.21733         0.435026     -0.912787     -0.362273
Ti       9.50175      1.87650     10.15041         0.093089      0.401033      2.139611
Ti       9.39713     13.12170     10.34370         0.591660     -1.249691     -0.140610
Ti       9.28969      5.61226      2.09437         0.167537     -0.240994     -0.364768
Ti       9.39000      5.62970     14.38334         0.421004     -0.632609     -0.059142
Ti       9.28441      5.55427      6.07486         1.112139      0.608338      1.144477
Ti       9.39022      5.65247     10.30887         0.468943     -1.222348     -0.522809
Ti       9.33385      9.30206      2.08259         0.783397      1.029313      0.342267
Ti       9.40519      9.30876     14.30165        -0.069221      0.148137      0.585214
Ti       9.24043      9.33290      6.11215         0.212464     -0.054625     -0.334174
Ti       9.32937      9.25055     10.35688        -0.640269      2.347724     -0.371472
O       1.80792      1.79729      0.17549        -0.282259     -0.108291     -0.424263
O       2.00497      1.90722     12.47112        -0.249133      0.051760     -0.089041
O       1.89243     13.14914      0.14101        -0.054368      0.097144     -0.144463
O       1.83926     13.10027     12.62169         0.033940      0.403222     -1.614505
O      13.20302      1.85606      0.17348         0.034095      0.147978     -0.607120
O      13.12305      1.90695     12.46197         0.261051     -0.198153     -0.378937
O      12.94147     12.94719      0.14252         0.188006      0.831248      0.431433
O      13.14660     13.08244     12.58611         0.551801      0.455773     -0.511447
O       1.97398      1.89705      4.31557        -0.763453     -0.265464      0.277049
O       1.70909     13.25158      4.38432         0.547983     -0.638862     -1.232753
O      12.93709      1.89401      4.27612         0.534506     -0.227322      0.408120
O      13.16955     13.11372      4.35251        -0.173656     -0.221565     -0.573850
O       1.91675      1.84037      8.39115         0.273064      0.156544     -0.679822
O       1.87415     13.12641      8.38846        -0.117481     -0.199358     -0.384023
O      12.98586      1.85451      8.43502         0.320852     -0.171331     -1.841233
O      13.29637     13.05918      8.33502        -0.870516      0.135984      0.333603
O       1.92276      5.55960      0.23382        -0.206582      0.349816     -0.705306
O       1.91012      5.63730     12.42315        -0.212793     -0.307962      0.010758
O      13.15681      5.70052      0.11013         0.037665     -0.508256      0.064760
O      13.25001      5.55010     12.41433        -0.313048     -0.096555      0.344702
O       1.65550      5.71524      4.33925         0.014593     -0.256892      0.039064
O      13.16716      5.57940      4.24876        -0.169656      0.223775      0.062184
O       1.74037      5.61129      8.36017         0.515865      0.183208     -1.414138
O      13.14530      5.62496      8.34705        -0.083278      0.104475     -1.631258
O       1.91130      9.49771      0.16505        -0.834276     -0.329512     -0.564557
O       1.87986      9.28545     12.59446        -0.292680      0.151999     -0.371836
O      13.22248      9.37766      0.17640        -0.192886      0.160645     -0.279430
O      12.92465      9.25175     12.45243         0.867096      0.618356     -2.062584
O       1.95740      9.29087      4.29056        -0.857478      0.516308      0.120573
O      12.99321      9.24830      4.27230         0.051110      0.460088      0.044507
O       1.92781      9.37084      8.44364        -0.087340     -0.178672     -0.265200
O      12.93949      9.33973      8.38169         0.557945      0.221132      0.004261
O       5.53313      1.97915      0.30503         0.218353     -0.426832     -1.458419
O       5.60185      1.78152     12.43257        -0.021934      0.508472      0.291836
O       5.71100     13.06180      0.03890        -0.280030      0.524950      0.062525
O       5.50880     13.32803     12.53272         0.535917     -0.663017     -0.363683
O       5.61947      1.78010      4.43762         0.163281      0.339247     -0.760629
O       5.70863     12.98893      4.37683        -0.351075      0.556682     -0.002212
O       5.71146      1.83690      8.34070        -0.272164      0.405373      0.585054
O       5.67648     13.05946      8.42699         0.092876      0.225975     -0.206998
O       5.42869      5.57187      0.40688        -0.039784     -0.041921     -0.643671
O       5.41795      5.66297     12.53933         0.542230     -0.580536     -0.725258
O       5.61637      5.77788      4.40923         0.179073     -0.313227     -0.122333
O       5.65329      5.64696      8.36155         0.158681     -0.164428     -1.427908
O       5.65557      9.24448      0.17729        -0.300824      0.376861      0.000558
O       5.60118      9.25239     12.50913         0.011456      0.307717     -1.236709
O       5.47614      9.28263      4.18458         0.535579      0.610691      0.245843
O       5.50617      9.55869      8.48342         0.156703     -0.590765     -1.316703
O       9.30539      2.03826      0.17036         0.437113     -1.022752      0.520745
O       9.27844      1.84435     12.57167         0.222914      0.180239     -0.660164
O       9.44822     13.03597      0.25200        -0.106243      0.427332     -0.922060
O       9.33555     12.95716     12.47884        -0.157660      0.806812     -0.616734
O       9.50588      1.86075      4.25624        -0.378996     -0.052793      0.567481
O       9.33680     12.96562      4.28403        -0.269633      0.636333      0.341194
O       9.61992      1.89048      8.36180        -0.784044     -0.487174     -0.160300
O       9.32714     13.11051      8.46445         0.323974      0.290845     -1.009904
O       9.23536      5.68831      0.20728         0.578502      0.012475     -0.772112
O       9.44730      5.64612     12.55701        -0.544686     -0.117668     -1.049890
O       9.35861      5.51458      4.27544        -0.378848      0.194608     -0.604212
O       9.24042      5.74614      8.45435         0.093701     -0.460401     -0.349687
O       9.21328      9.10326      0.18468         0.741457      0.861171     -0.563558
O       9.28978      9.21321     12.44312         0.363576      0.440904     -0.146348
O       9.26186      9.33736      4.24954         0.555130      0.155394     -0.378593
O       9.20779      9.25670      8.34231         0.918201      0.260834      0.171428
O       3.72771      2.13179      2.24792        -0.977835     -0.495000      0.380479
O       3.72671      1.43544     14.56798         0.253713      0.628271     -0.179636
O       3.70949     12.82915      2.20625         0.861746      0.674045     -0.066347
O       3.73777     13.51324     14.54230         0.709315     -0.201654      0.253151
O      14.90254      1.51092      2.30297         0.847497      0.227786     -0.003863
O      14.99694      2.30964     14.30534         0.429189     -0.602611      0.941127
O      14.98105     13.30594      2.19841        -0.768879      0.331545     -0.133686
O      14.98637     12.81882     14.64786        -1.041481      0.446859      0.019766
O       3.64228      2.35733      6.34753         1.968148     -0.837801      0.497326
O       3.71471     12.58916      6.36331         0.406458      1.121597     -0.022879
O      14.96327      1.47610      6.36877         0.766837      0.114569     -0.138362
O       0.01221     13.53382      6.41644        -0.306097     -0.879522     -0.615065
O       3.84869      2.29856     10.33180        -0.005962     -0.564716      0.233567
O       3.80151     12.69379     10.36864         0.078014      0.889891      0.179461
O       0.02365      1.56111     10.34672         1.076656      0.021095      0.711422
O       0.05356     13.43409     10.41045        -0.165646     -0.131268      0.501319
O       3.59109      5.42309      2.55831         0.560518     -0.097309     -0.521111
O       3.70359      5.98969     14.47998        -0.790359      0.208051      0.595999
O      14.96613      6.07580      2.11515        -0.269738     -0.703009      0.458456
O      15.00916      5.19387     14.46855         0.424730     -0.130999      0.029462
O       3.67252      5.37507      6.32453         1.102767     -0.046635      0.517922
O      14.92492      5.93846      6.31207         0.725462      0.493674      0.527913
O       3.77869      5.34502     10.27693        -0.114482     -0.196312      0.388167
O      15.00847      5.90522     10.26192         1.079861      0.196912      0.698659
O       3.74479      9.67274      2.13023        -0.181016      0.198929      0.269599
O       3.73308      8.98148     14.58145        -0.845896      0.446816      0.132982
O       0.00127      9.27653      2.23482         0.496010     -0.459249      0.367312
O      14.89677      9.88790     14.46680         0.982747     -0.826221      0.404438
O       3.70981      9.86048      6.26350         0.161878     -1.420950      0.415161
O      14.96601      8.87449      6.34424        -0.408304      0.786428     -0.307058
O       3.74134      9.68288     10.54886        -0.499319     -0.230842      0.117961
O       0.00996      8.99149     10.39048        -0.900987      0.612049      0.158053
O       7.51059      1.83581      2.25552        -0.347846     -0.804643      0.643056
O       7.41273      2.13915     14.72128        -0.360363      0.112054     -0.593556
O       7.43769     13.41328      2.22362         0.324768     -0.289339      0.361450
O       7.50729     12.75867     14.36216         0.078809      0.255936      0.494591
O       7.55322      1.57553      6.39210         0.178001     -0.140850     -0.088064
O       7.47925     13.50937      6.44596         0.134855     -0.010789     -0.385900
O       7.60415      1.65284     10.51044        -0.174163      0.023237     -0.561373
O       7.52987     13.54773     10.47469        -0.269390     -0.723215     -0.113994
O       7.43650      5.92997      2.23982        -0.795502     -0.051150      0.465903
O       7.43153      5.14612     14.41207        -0.013635      0.923416      0.217225
O       7.53167      6.11205      6.37443        -1.186794     -0.719894     -0.073267
O       7.46922      5.89755     10.55127         0.789665     -0.134387     -0.091324
O       7.49171      9.01332      2.11664        -1.060625     -0.218848      0.759631
O       7.49973      9.71025     14.50205        -0.187691     -0.524407     -0.152004
O       7.44730      8.99200      6.30489        -0.991505     -0.072151      0.109717
O       7.46432      9.11596     10.42735         0.141445     -0.063581      0.154959
O      11.25344      2.17786      2.01753        -1.112863      0.010253      0.616832
O      11.17282      1.46733     14.44361         1.062224      0.362485      0.502012
O      11.19392     12.79284      2.27572         0.502740      0.281943      0.157989
O      11.18691     13.63295     14.26405         0.565968     -0.560069      1.190812
O      11.27438      2.21456      6.36540        -0.266410     -0.414668     -0.305038
O      11.25299     12.60265      6.30457        -0.555609      0.860723      0.395270
O      11.35971      2.16335     10.52203        -1.803952     -0.615130     -0.113468
O      11.31063     12.82356     10.56230        -0.143545      0.820658     -1.047930
O      11.18710      5.23338      2.06642         1.326206      1.026528      0.597482
O      11.25787      5.99992     14.44040        -0.364855     -0.640432      0.798921
O      11.16801      5.19075      6.24369         0.698027      0.668926      0.275250
O      11.25973      5.29506     10.32790         0.321412      0.547114      0.442517
O      11.22052      9.63916      1.94623        -0.428567     -0.335844      1.047303
O      11.24176      8.90353     14.51765        -0.425518      0.369570      0.328933
O      11.10315      9.85516      6.28832         1.156050     -0.974416      0.129763
O      11.17949      9.69541     10.44344         0.895004     -0.383689     -0.311502
O       1.45545      3.70827      2.15486         0.055762      0.367891      0.233929
O       2.29349      3.78357     14.58692        -0.601137     -0.998684     -0.259669
O       2.05960     15.00811      2.35365        -0.145202     -0.591702     -0.375949
O       1.56094      0.01300     14.47209        -0.512421      1.126973      0.455757
O      13.45075      3.75526      2.22779        -0.188917      0.549327     -0.362253
O      12.57522      3.70410     14.47997         1.492508      0.147406     -0.106644
O      12.68334     14.97323      2.18981         0.590860     -0.020388     -0.080129
O      13.46977      0.02512     14.51588        -0.073375      0.100990      0.194857
O       1.42748      3.71542      6.31159         0.367845      0.585627      0.098451
O       2.41143     14.96149      6.31128        -1.189119      0.662719      0.244585
O      13.47467      3.73900      6.32011        -0.372892     -0.138816      0.401594
O      12.75416     14.94451      6.25496        -0.066961      0.178647      0.655844
O       1.60738      3.75291     10.33349         0.473826     -0.479252      0.315394
O       2.24317     14.95160     10.38037         0.036468      0.902724      0.480630
O      13.51223      3.76047     10.37097        -0.486014     -0.126667      0.226494
O      12.82876     14.99361     10.35664         0.279088     -0.118867      0.230639
O       2.13267      7.57527      2.13163        -0.421232      0.007200      0.258665
O       1.28412      7.49687     14.50816         1.178773     -0.411710      0.280849
O      12.80233      7.53662      2.15550         0.066273     -0.947826      0.484263
O      13.52977      7.42168     14.34895        -0.096541      1.077034      0.409528
O       2.20290      7.46742      6.36905        -0.587148      0.830409      0.104790
O      12.64986      7.45341      6.25765         0.293596      0.080352      0.361547
O       2.19309      7.46242     10.34062         0.020017      0.530615      0.385958
O      12.73434      7.45116     10.42244         0.820852      1.124065     -0.449235
O       1.75135     11.35501      2.42611        -0.785128     -1.056266     -0.250687
O       2.12654     11.29369     14.48729         0.302153     -1.344228      0.579725
O      13.31484     11.23460      2.31565        -0.312196      0.781637      0.132489
O      12.59162     11.23536     14.44428         0.669248      0.451750      0.208308
O       1.46517     11.19003      6.33775        -0.001788      0.333024     -0.154148
O      13.59370     11.13180      6.27737        -0.701938      0.561063      0.081930
O       1.60789     11.25171     10.55425        -0.069846     -0.534283     -0.319009
O      13.44499     11.26589     10.44253        -0.204854     -0.706691      0.007092
O       5.68914      3.76157      2.50621         0.464980      0.331114      0.133872
O       5.15995      3.70950     14.59511         0.296490     -0.208453     -0.341947
O       5.37122     14.97589      2.15179         0.104465      0.607092      0.272999
O       5.98690      0.02859     14.55639        -0.792434     -0.643763      0.211526
O       5.95991      3.81726      6.30206        -0.169215      0.064986      0.313829
O       5.26663     14.99962      6.25540         0.207952     -0.390682      0.767313
O       6.02088      3.77326     10.39240        -0.808418     -0.272521      0.009747
O       5.24895      0.00482     10.34849         0.725685      0.084711      0.266206
O       5.13059      7.48482      2.22763         0.907986      0.623662      0.549094
O       5.94659      7.43717     14.45560         0.197035      0.243813      0.590528
O       5.27766      7.61209      6.34747        -0.202711     -1.070615      0.539069
O       5.35374      7.52998     10.40375        -0.194197     -0.630041     -0.192454
O       5.94698     11.24947      2.04201        -0.302367     -0.095117      0.425082
O       5.26013     11.21869     14.45058         0.214369      0.346246     -0.035161
O       6.03753     11.19843      6.37237        -0.426191      0.374666     -0.225465
O       5.97495     11.24343     10.66236        -0.511335      0.780707     -0.623644
O       9.11779      3.81612      2.21700        -0.246514     -1.595592      0.684965
O       9.53916      3.72512     14.64016         0.583744      0.945558     -0.122418
O       9.55465      0.00281      2.11148         0.259885      0.170283      0.532951
O       8.92752     14.97963     14.57531         0.417960     -0.584308      0.336324
O       9.03924      3.67953      6.38972        -0.050064      0.407488     -0.256119
O       9.69808     14.93429      6.26508         0.099999      0.020902      0.420630
O       9.28288      3.80752     10.58058        -0.991652     -1.870081     -0.469030
O       9.65372     14.97010     10.50652         0.316089      1.717078     -0.507730
O       9.64029      7.44589      2.27077         0.165821      0.483877      0.399206
O       8.90225      7.43072     14.43819         0.530882      0.568887      1.049365
O       9.71195      7.46718      6.18899         0.087998      0.019411      0.336834
O       9.69008      7.50619     10.35511         0.147729     -0.862356      0.550895
O       8.98258     11.21150      2.09629         0.406818     -0.271520      0.518727
O       9.71972     11.18441     14.44053        -0.213022      0.161673      0.514579
O       8.76847     11.24834      6.26812         1.131306      0.041972      0.544767
O       9.14649     11.24997     10.34310        -0.285745     -0.119068      0.566876
