  # total energy = -7874.14393724 
CRSYTAL
PRIMVEC
    15.6000000000000000    0.0000000000000000    0.0000000000000000
     0.0000000000000000   15.6000000000000000    0.0000000000000000
     0.0000000000000000    0.0000000000000000    17.640000000000000
PRESSURE
-2.03744 -2.33696 8.88504 0.080146 -0.096769 0.059141
PRIMCOORD
320 1
Pb       3.74804      3.74436      4.37332         0.466464      1.070510      0.457332
Pb       3.89779      3.93074     17.57475         0.350108     -0.293096      0.033629
Pb       3.87707     15.50255      4.28677        -0.815900      0.708206      1.010016
Pb       3.77241     15.57049     17.49891         0.504058      0.022481      1.179758
Pb       0.05055      3.89969      4.34563        -0.101383     -0.304497      0.150761
Pb      15.59287      3.99318     17.62170        -0.004790     -0.576025      0.282557
Pb      15.52679     15.51688      4.25569         0.384301      0.287435      0.886623
Pb      15.46891      0.03172     17.52654         0.050387     -0.173963      0.712499
Pb       3.79868      3.96885      8.76692         0.316085     -0.027189      0.484244
Pb       3.81573      0.05954      8.68890         0.657876     -0.298643      0.559961
Pb      15.54985      3.95045      8.67808         0.523032     -0.380746      0.972912
Pb       0.00453     15.58762      8.73521        -0.300094      0.092580     -0.511980
Pb       3.93093      3.59980     13.22116         0.246132      0.599862     -0.003740
Pb       3.79138     15.48786     13.12360         0.648254      0.529579      0.211026
Pb       0.00852      3.76474     13.14943        -0.000388      0.576738      0.400807
Pb      15.58613      0.14240     13.09447        -0.454932     -0.785643      0.596399
Pb       3.88774      7.80111      4.39158        -0.325342     -0.051397      0.636217
Pb       3.94970      7.82086     17.57318         0.211536     -0.023191      0.554725
Pb       0.06535      7.99394      4.41699        -0.141959     -0.663616     -0.388587
Pb       0.06883      7.87807     17.48644        -0.262547     -0.559625      0.446360
Pb       3.93686      7.93159      8.83789        -0.860500     -0.626571     -0.501663
Pb      15.53833      7.81405      8.86997         0.089070      0.063377     -0.659599
Pb       3.93048      7.75988     13.08990        -0.325080      0.442808      0.645649
Pb       0.10043      7.89829     13.16736        -0.309034     -0.291153      0.104019
Pb       3.91193     11.65415      4.35286         0.226747     -0.724163      0.000112
Pb       3.95006     11.62897     17.54196        -0.689516      0.435291      0.874334
Pb      15.51908     11.54285      4.27323        -0.465153      0.496922      0.144172
Pb      15.53987     11.63863     17.46550         0.382953      0.309032      0.312294
Pb       3.83436     11.58401      8.73399         0.421096      0.172677      0.305179
Pb      15.49712     11.80758      8.77404        -0.136303     -0.257156     -0.398245
Pb       3.82378     11.80538     13.11488        -0.146089     -0.480281      0.259436
Pb      15.48814     11.63086     13.11481         0.310862      0.537381      1.357804
Pb       7.88439      3.64963      4.53119        -0.751759      0.412267     -0.557883
Pb       7.77560      3.82099     17.53335        -0.181808      0.428581      0.543070
Pb       7.67810     15.42332      4.31082         0.011226      0.751143      0.814961
Pb       7.74232     15.59407     17.60561        -0.115016      0.383583      0.254133
Pb       7.64053      3.92916      8.72769        -0.030932     -0.061143     -0.050903
Pb       7.83506     15.57674      8.67924        -0.465718      0.172995      0.201042
Pb       8.09110      3.99261     13.05810        -1.941867      0.068789      1.091200
Pb       7.80552      0.03913     13.21093         0.000435      0.343631     -0.198008
Pb       7.97448      7.73230      4.35703        -0.750781     -0.163305      0.281636
Pb       7.83004      7.91241      0.01707        -0.139959     -0.498706     -0.117758
Pb       7.70665      7.84045      8.69292         0.937496     -0.272945      0.818713
Pb       7.73923      7.94949     13.08246         0.486821     -0.663288      0.005989
Pb       7.88420     11.72435      4.40515        -0.709246     -0.149647     -0.234226
Pb       7.77103     11.73066      0.01912         0.085660     -0.517559     -0.048508
Pb       7.85799     11.72960      8.96368        -0.120802      0.098783     -1.179854
Pb       7.79438     11.81121     13.18127        -0.036309     -0.626623     -0.165586
Pb      11.66310      3.89100      4.43763         0.194364     -0.656278     -0.598645
Pb      11.87198      3.82391     17.61035        -0.657645      0.170680     -0.007781
Pb      11.48420     15.36742      4.40990         1.190892      0.760814      0.433716
Pb      11.42206     15.46173     17.60882         0.913889      0.229206      0.173678
Pb      11.51472      3.92961      8.77716         0.665039     -0.361007     -0.273455
Pb      11.85063      0.07984      8.66706        -0.453262     -0.360523      0.312186
Pb      11.81967      3.94287     13.16692        -0.125583     -0.144434      0.940680
Pb      11.68743     15.54086     13.13982        -0.260298      0.091036      0.081372
Pb      11.79278      7.62353      4.21948        -0.570827      1.339054      1.148120
Pb      11.69152      7.68739     17.47403        -0.000634      0.198093      0.187980
Pb      11.55487      7.80220      8.67691         0.267790      0.390535      0.316805
Pb      11.76086      7.69344     13.21844        -0.310975      0.743555     -0.002651
Pb      11.66812     11.64957      4.21406         0.736594     -0.243890      0.179580
Pb      11.84928     11.54091     17.43066        -0.580425      0.317927      0.208029
Pb      11.75774     11.60457      8.57313        -0.196269      0.179968     -0.025044
Pb      11.59669     11.61119     12.96724        -0.118826      0.275313      0.455401
Ti       1.86768      1.83483      2.35310        -0.381602      0.728407      2.427474
Ti       1.91795      1.90892     15.70502        -0.169114      0.628674      1.687627
Ti       1.98514     13.52564      2.40937        -1.790233      0.697771      1.639205
Ti       1.87155     13.62787     15.66132        -0.461322     -0.091238      3.636668
Ti      13.55572      1.89352      2.45522         0.522045      0.057350      2.597298
Ti      13.55716      1.82744     15.54540         0.278268      0.713294      2.932890
Ti      13.66571     13.64590      2.34990         0.017970     -0.302140      1.618879
Ti      13.57858     13.65009     15.57179        -0.412320     -0.033847      0.843980
Ti       1.92713      1.93513      6.81281         0.034954      0.520825      1.466672
Ti       1.99339     13.58553      6.76495        -1.017004      0.675488      1.394106
Ti      13.66589      2.08222      6.79341        -0.420920     -1.813993      1.676082
Ti      13.62925     13.62289      6.75531        -0.320140     -0.261931      2.033761
Ti       1.86672      1.93149     11.17068         1.245567      0.728404      0.560609
Ti       1.83507     13.72726     11.27715         0.711237     -1.667880      0.924603
Ti      13.58584      1.91722     11.15822        -0.646725      0.033441      1.671103
Ti      13.65299     13.65601     11.26596        -0.708448     -0.185063      1.795041
Ti       1.94419      5.83250      2.48345         0.339859      0.280282      2.952346
Ti       2.00701      5.86768     15.65515        -0.622186     -0.567439      2.647329
Ti      13.67810      5.82788      2.52264         0.080555     -0.476369      0.901242
Ti      13.69479      5.81669     15.60093        -0.479452     -0.230972      2.422371
Ti       1.87358      5.85219      6.92652         0.650239      0.585380     -0.060315
Ti      13.58914      5.81304      6.78807         0.443106      0.657284      2.291476
Ti       1.88872      5.81166     11.33320         0.860918     -0.085845      2.840339
Ti      13.67945      5.79221     11.22262        -0.131866      1.296219      1.186306
Ti       1.95533      9.75349      2.28493         0.460943     -0.603253      1.332175
Ti       2.02596      9.73934     15.59141        -0.909791      0.626222      1.269684
Ti      13.62142      9.66987      2.10730        -0.138388      0.223380      4.042875
Ti      13.71873      9.66969     15.44247        -0.785578     -0.204804      2.787704
Ti       1.84416      9.80981      6.89322         0.252857     -1.319136      2.435432
Ti      13.66811      9.58548      6.82090        -0.383563      2.020776     -0.682391
Ti       1.88971      9.81767     11.22342         0.830900      0.228475      2.773411
Ti      13.62745      9.75873     11.18050        -0.879646     -0.998951      1.401382
Ti       5.77714      1.93619      2.47016         0.431492      1.015224      0.612470
Ti       5.83033      1.86631     15.59959        -0.191824      1.384559      2.973363
Ti       5.72654     13.63830      2.37604         1.017972     -0.955735      1.811371
Ti       5.79464     13.62012     15.61637        -0.277901      0.360672      3.516919
Ti       5.79238      1.99045      6.82517         0.119091     -0.756733      1.645867
Ti       5.76396     13.56960      6.91899         0.823197      0.166069      2.677803
Ti       5.86475      1.89597     11.16888        -0.153590      0.659072      5.456963
Ti       5.89271     13.68139     11.21817        -0.795533      0.148936      1.262255
Ti       5.86992      5.82227      2.63723        -0.750849     -0.722795      3.055815
Ti       5.82779      5.90354     15.54649         0.922775     -0.785837      2.346818
Ti       5.80580      5.94957      6.80359        -0.679575     -1.334268      1.726067
Ti       5.70801      5.80505     11.30610         1.232502     -1.073296      1.941890
Ti       5.94756      9.66422      2.49188        -1.293037      0.525141      2.773258
Ti       5.83210      9.78393     15.56239         0.487733      0.023770      1.464252
Ti       5.84891      9.67379      6.78396        -0.966617      1.935006      2.397473
Ti       5.76953      9.79120     11.18408         0.241734      0.355610      4.404891
Ti       9.71821      1.84501      2.46379         0.127622      0.747042      1.374987
Ti       9.71466      1.93384     15.58827         0.234404      0.398862      3.791306
Ti       9.69739     13.61531      2.40886         0.340885     -0.506290      1.323823
Ti       9.62984     13.55028     15.62087         1.221725      0.488516      1.762159
Ti       9.73103      1.88121      6.82477         0.392737     -0.016932      2.308817
Ti       9.69949     13.66572      6.86983         0.837092     -0.728373      1.106092
Ti       9.75283      2.01956     11.16077         0.083871     -1.941040      2.294499
Ti       9.72013     13.74428     11.18183         0.110707     -0.143897      2.595488
Ti       9.68214      5.77719      2.44835         0.045151     -0.677238      1.811126
Ti       9.69466      5.81107     15.69096         0.368601      0.024221      1.054074
Ti       9.70505      5.80095      6.79907        -0.008738      0.213023      1.871328
Ti       9.81701      5.82340     11.17769        -0.858916      1.989231      2.878127
Ti       9.75235      9.66599      2.33633         0.717181      0.387853      2.154477
Ti       9.72759      9.75180     15.50935         0.125099     -0.395183      4.454610
Ti       9.59087      9.73260      6.70676         1.600236      0.498465      4.356632
Ti       9.70447      9.76130     11.08516         0.338521     -0.388877      3.078719
O       1.76692      1.93222      0.69695         0.417809      0.085983     -2.601227
O       2.05502      1.93249     14.01324        -0.531321     -0.385474     -2.121877
O       1.98597     13.52986      0.75899        -0.031548      0.007836     -2.694747
O       1.84650     13.61492     14.04146         0.011988      0.620270     -4.266578
O      13.58826      1.89767      0.78186        -0.203608     -0.177425     -2.183686
O      13.57726      1.99783     13.87134         0.400235     -0.150921     -2.104018
O      13.61306     13.80475      0.68053        -0.096994     -0.174594     -1.848256
O      13.54871     13.75528     13.87837         0.045717     -0.304872     -1.723257
O       2.00704      2.20596      5.14979        -0.362944     -0.791535     -1.233069
O       1.86198     13.66919      5.09594         0.474555     -0.290600     -1.543845
O      13.49267      2.05663      5.14456         0.513578      0.161312     -1.940359
O      13.58026     13.45733      5.11605         0.060476      0.247279     -3.051030
O       1.87186      2.02669      9.48924         0.171403     -0.303724     -1.218277
O       1.82620     13.54497      9.61498        -0.162226      0.072552     -2.185605
O      13.68421      1.91040      9.49989        -0.239141      0.208775     -2.247544
O      13.62240     13.60999      9.60235         0.234012     -0.120830     -2.226585
O       1.82785      5.85107      0.82502         0.289687      0.198477     -2.855351
O       1.91929      6.00676     14.03291        -0.027347     -0.062566     -3.584705
O      13.75737      5.81143      0.85093        -0.142705     -0.176599     -2.571930
O      13.59851      5.69054     13.93432         0.119012      0.052363     -2.191200
O       1.89939      5.69713      5.25238         0.043979      0.438265     -1.555504
O      13.53552      5.99539      5.11721        -0.072039     -0.470150     -1.702042
O       1.90714      5.68235      9.70825        -0.239193      0.391761     -3.530018
O      13.59013      5.78057      9.52678         0.192133      0.157889     -0.832355
O       1.99127      9.74179      0.57131        -0.057363     -0.177269     -0.802692
O       2.01477      9.76305     13.90690        -0.155963     -0.254423     -1.514164
O      13.65795      9.59339      0.44700        -0.030120      0.108177     -2.488362
O      13.67480      9.61378     13.76909         0.030787      0.231763     -1.792929
O       1.81534      9.80539      5.25159        -0.229095     -0.184234     -3.572231
O      13.96099      9.72124      5.10540        -0.675118     -0.588334     -0.486819
O       1.86649      9.95760      9.56570        -0.010630     -0.150435     -2.792370
O      13.66589      9.83289      9.49032         0.201953     -0.223420     -1.722956
O       5.96776      1.87954      0.77105        -0.520035      0.206984     -0.367906
O       5.89126      1.87159     13.93269        -0.238414     -0.119273     -1.950064
O       5.70859     13.60100      0.70326         0.167779      0.132030     -1.612905
O       5.75275     13.57138     13.97238         0.200868      0.166857     -2.671053
O       5.87385      2.04785      5.16469        -0.391813     -0.408452     -2.176331
O       5.81901     13.58838      5.27955        -0.047603     -0.052877     -3.879563
O       5.76368      1.95972      9.56000         0.240659      0.064682     -4.534487
O       5.92647     13.71751      9.53104         0.197409     -0.174538     -1.457237
O       5.71431      5.81803      1.01209        -0.052989      0.164572     -3.956865
O       5.80669      5.90294     13.88243         0.093825      0.045105     -1.642561
O       5.77701      5.97568      5.15106         0.120140     -0.058542     -1.521348
O       5.73164      5.61017      9.64357         0.334965      0.566302     -2.312706
O       5.79147      9.67407      0.84373         0.201536     -0.043031     -3.044723
O       5.87788      9.89886     13.87978        -0.141379     -0.225203     -1.279527
O       5.72234      9.68888      5.14280         0.435536      0.244565     -3.109960
O       5.70706      9.85497      9.55070         0.340556     -0.218791     -3.388547
O       9.80868      1.85034      0.77388        -0.192864     -0.066211     -1.217891
O       9.63890      1.89935     13.95026        -0.066320      0.062062     -2.953486
O       9.71553     13.61516      0.73496        -0.132683      0.082299     -1.910291
O       9.64398     13.56797     13.94207        -0.069030      0.044721     -1.846110
O       9.56475      1.79940      5.18283         0.314510      0.085978     -3.175940
O       9.80944     13.65564      5.16670        -0.753284     -0.267241     -2.013646
O       9.82247      1.90718      9.50178        -0.185586      0.464925     -2.442716
O       9.74472     13.75204      9.52427        -0.491355     -0.208716     -2.620543
O       9.68575      5.81736      0.79053         0.155966     -0.144565     -2.020807
O       9.85153      5.87280     14.00148        -0.150119     -0.002791     -1.880592
O       9.72576      5.81484      5.13253         0.110541     -0.029394     -2.022974
O       9.92436      5.87442      9.50950        -0.135606     -0.338869     -2.092700
O       9.66346      9.67564      0.67513        -0.102965      0.255628     -2.183617
O       9.66044      9.72253     13.87127        -0.084090      0.186827     -2.524596
O       9.55236      9.75029      5.08064         0.075809      0.020559     -3.723486
O       9.76603      9.81298      9.42144        -0.396776     -0.083380     -2.606810
O       3.79418      1.87851      2.89910         0.483398     -0.021426     -0.426532
O       3.89106      1.86527     16.18822        -0.061110      0.340461     -0.493215
O       3.86200     13.58033      2.91533        -0.041580     -0.028501     -0.127415
O       3.79284     13.71291     16.05146         1.140830     -0.421664     -0.195108
O      15.57477      1.98434      2.87982        -0.119828     -0.444888      0.075378
O      15.57899      1.85903     16.13060        -0.518416      0.578054     -0.930044
O      15.56869     13.67853      2.86774         0.116278     -0.855719     -0.413299
O      15.41098     13.66870     16.07966         1.387872     -0.135805      0.027950
O       3.85281      1.96686      7.35031         0.246122      0.268388     -0.405644
O       3.87501     13.45285      7.33362        -0.945059      0.755516     -0.349595
O       0.02500      1.94984      7.21346        -0.084664      0.122182      0.091512
O      15.52489     13.80826      7.18428         1.108093     -0.909228      0.461424
O       3.86098      1.89094     11.63612        -0.006613     -0.182797      0.075549
O       3.80006     13.70200     11.60617         0.371637     -0.045398      0.353456
O      15.53614      1.93545     11.51920         0.243506     -0.077762      0.830417
O      15.55732     13.58976     11.71132        -0.847261      0.843026      0.105493
O       3.86627      5.89282      3.06427        -0.638121     -0.354027     -0.522797
O       3.91502      5.90413     16.12544         0.394158      0.035807     -0.147314
O      15.51640      5.88657      3.02267         1.000341     -0.052089     -0.173352
O      15.58162      5.78490     16.12102         0.695519      0.576399     -0.352770
O       3.80987      6.01658      7.36750         1.044410     -0.445697      0.048989
O      15.52930      5.80657      7.17022        -0.238343      0.360163      0.720274
O       3.87904      5.72635     11.74603        -0.761001      0.603949      0.123181
O       0.00212      5.87406     11.85060        -0.222096     -0.162796     -0.607607
O       3.85449      9.85391      2.79310        -0.131827     -0.447566      0.281900
O       3.87709      9.78987     16.08278         1.024977     -0.211771     -0.297500
O      15.54735      9.69372      2.60709         0.255087     -0.319358      0.334411
O       0.00934      9.72626     16.00091         0.057120     -0.344445     -0.400144
O       3.91780      9.68344      7.18808        -0.960103      0.270751      0.848619
O      15.51399      9.70799      7.28529         0.840011     -0.248963      0.935918
O       3.86652      9.77601     11.66627         0.171082      0.456831     -0.198531
O       0.00336      9.80100     11.65882        -0.376632     -0.751621     -0.209884
O       7.71451      1.88031      2.89597         0.227560     -0.319385      0.236471
O       7.74483      1.92339     16.19802         0.652942      0.022442     -0.766742
O       7.69488     13.63642      2.83172         0.431683     -0.146431     -0.152680
O       7.75714     13.48936     16.10544        -0.412885      0.645999     -0.205352
O       7.78766      1.88339      7.14770        -0.627217      0.283656      1.057030
O       7.78091     13.68137      7.31670         0.149741     -0.204972      0.123439
O       7.79052      1.98045     11.64946         0.747169      0.025327     -0.368453
O       7.78249     13.67014     11.79426        -0.223750      0.157459     -0.727062
O       7.79546      5.66354      2.97018         0.525714      1.063779      0.044542
O       7.81512      5.73475     16.10781        -1.515752      0.418836     -0.328271
O       7.79331      5.89943      7.21275        -0.659303     -0.445666      0.512961
O       7.89335      5.92541     11.63352         0.128579     -0.927915     -0.176254
O       7.82218      9.64043      2.90453         0.141379      0.369465     -0.262924
O       7.72543      9.76902     16.10516         0.817939      0.705933     -0.242435
O       7.70976      9.75792      7.22498         0.928911     -0.143490      0.348300
O       7.77944      9.78189     11.62572        -0.994303      0.299558     -0.447836
O      11.67533      1.76439      2.98838        -0.924075      0.641163     -0.377570
O      11.62589      1.89854     15.96971         0.684758      0.122382      0.188819
O      11.67075     13.65125      2.77409        -0.605696     -0.317122      0.285993
O      11.58725     13.66597     16.04980         0.812833     -0.390765      0.087615
O      11.70232      1.97810      7.15398        -0.133402      0.238003      0.660095
O      11.67135     13.63362      7.13319         0.493071      0.027277      0.792018
O      11.66795      1.81380     11.63089         0.432556      0.973821     -0.092065
O      11.58315     13.60552     11.64887         0.971728      0.095116      0.217332
O      11.67989      5.78358      2.95601        -0.624149     -0.677540     -0.426976
O      11.70159      5.81782     16.08775         0.541798      0.051288      0.285093
O      11.65351      5.92036      7.24820        -0.087537     -0.716534     -0.065902
O      11.75997      5.95396     11.80065        -0.556236     -1.076422     -0.932423
O      11.74615      9.70310      2.66947        -1.131737      0.230245      0.014273
O      11.72431      9.63797     15.90590        -0.506178      0.245902     -0.041514
O      11.67071      9.80619      7.03495        -0.277048     -0.882958      0.439041
O      11.65298      9.73791     11.48607        -0.040556      0.351566      0.406464
O       1.93754      3.90428      2.85847        -0.248828      0.012686     -0.128527
O       1.99715      3.86503     15.96160        -0.015524      0.684263      0.621149
O       1.81895     15.57224      2.74289         0.793611     -0.678309      0.302755
O       1.91570      0.01509     16.13603        -0.432658     -0.769611     -0.207217
O      13.61653      3.80938      2.84748        -0.518255      0.545297      0.425194
O      13.69020      3.85999     16.19934        -0.318163     -0.290859     -0.677417
O      13.65002     15.51447      3.00807        -0.428780      0.300200     -0.716663
O      13.61266     15.57097     15.92505        -0.261438      0.459612      0.169718
O       1.97242      3.93316      7.32823        -0.390867     -0.197385      0.114463
O       2.04070     15.59225      7.22677        -0.430471     -0.391100     -0.193920
O      13.67628      3.90687      7.38252        -0.954455      0.687336     -0.926693
O      13.66377      0.03544      7.27845        -0.001585      0.086155     -0.314486
O       1.92322      3.84552     11.70369        -0.282420     -0.188815      0.405328
O       1.92278      0.00946     11.63537        -0.716720      0.533968      0.229469
O      13.60965      3.90729     11.64426         0.209106     -0.504159     -0.105273
O      13.57721     15.58804     11.54931         0.471991     -0.222249      0.604497
O       2.00383      7.79822      2.98472        -0.698092      0.704315     -0.809883
O       2.01917      7.84075     16.06708        -0.332746     -0.471452      0.132476
O      13.47370      7.75959      2.76917         1.091609      0.566542     -0.315684
O      13.63958      7.72638     15.93565         0.406311      0.415436     -0.045257
O       1.86676      7.84922      7.39536        -0.235658     -0.193418      0.358700
O      13.63381      7.75217      7.33229         0.019922     -0.616190      0.067020
O       2.06659      7.89512     11.65956        -0.990564     -0.997920     -0.267001
O      13.57704      7.81037     11.63798         0.877662     -0.171653     -0.103143
O       1.84085     11.62380      2.79874         0.352051      0.154752      0.148996
O       1.84804     11.71406     15.97901         0.267616     -0.366841      0.509011
O      13.57028     11.62394      2.61268         0.346323      0.211886      0.136686
O      13.71975     11.61172     15.99224        -0.841705      0.208155     -0.478120
O       1.81143     11.68835      7.17735         0.202642      0.740440      0.614781
O      13.68156     11.59789      7.07393        -0.008381      1.063654      1.217750
O       1.78066     11.76090     11.86646         1.177350     -0.400835     -0.906244
O      13.62361     11.62792     11.67983        -0.199472      0.898112     -0.154097
O       5.74315      3.89756      3.03719         0.305244     -1.258491     -0.480722
O       5.73811      3.87612     16.06039         0.212243      0.444526     -0.076353
O       5.70022     15.56929      2.95394         0.592211     -0.368821     -0.588846
O       5.88828      0.05524     16.17776        -0.197903     -1.931465     -0.664369
O       5.81354      3.92648      7.27106         0.124192      0.356900      0.036113
O       5.69632     15.56710      7.18914         0.200503      0.469642      0.513934
O       5.85799      3.86874     11.75185         0.048926     -0.231583     -0.087938
O       5.88109     15.57925     11.77409        -0.249764      0.084878     -0.399156
O       5.79353      7.77893      3.08859         0.744680      0.533680     -0.759475
O       5.98033      7.89395     16.08884        -1.114126     -0.982792     -0.444189
O       5.85347      7.80594      7.36407        -0.215297     -0.195793     -0.056184
O       5.79343      7.79513     11.66114         0.027741      0.319131     -0.512840
O       5.86550     11.67592      2.84467        -0.032585      0.258268      0.362016
O       5.80818     11.74084     16.19741         0.034468     -0.442309     -0.681333
O       5.82536     11.63258      7.26191         0.210297      0.055924      0.484676
O       5.68940     11.79544     11.63653         0.928845     -0.543865     -0.148348
O       9.63578      3.77212      2.94559         0.975348      0.001564     -0.084820
O       9.79091      3.94378     16.08403        -0.322379     -1.689904      0.064994
O       9.66433     15.51618      2.91553        -0.149434     -0.234758     -0.276835
O       9.68745     15.56074     16.10849        -0.673075     -0.032148     -0.383759
O       9.72463      3.83752      7.23524        -0.172319      0.898005      0.104492
O       9.84908     15.56753      7.26849        -0.621004      0.300304      0.179222
O       9.93588      3.89379     11.73870        -0.296992      0.524112     -1.279830
O       9.74903      0.07379     11.63849        -0.567246     -0.594775      0.269564
O       9.73356      7.76798      2.75040        -0.057684     -0.478940      0.370904
O       9.61492      7.74382     16.20364         0.644375      0.958781     -0.691540
O       9.61432      7.78005      7.25312         0.355464      0.376118     -0.209780
O       9.64037      7.86662     11.60765         0.824742     -0.602341     -0.190720
O       9.69111     11.63545      2.87915        -0.072554      0.464443     -0.271052
O       9.84750     11.67938     16.12814        -0.775558     -0.922569     -0.511115
O       9.74962     11.70479      7.23769        -0.828204     -0.262603      0.142134
O       9.59238     11.73286     11.55664         0.420196     -0.201564      0.136563
