  # total energy = -7867.22204636 
CRSYTAL
PRIMVEC
    15.010000000000000    0.0000000000000000    0.0000000000000000
     0.0000000000000000   15.010000000000000    0.0000000000000000
     0.0000000000000000    0.0000000000000000    16.400000000000000
PRESSURE
18.8909 19.0807 10.1521 -0.00381 0.030265 -0.04655
PRIMCOORD
320 1
Pb       3.70763      3.85515      4.06031         0.403408     -0.721539      0.839737
Pb       3.80681      3.67620      0.08559         0.184692      0.619774     -0.317930
Pb       3.67936      0.01219      4.05604         0.303016     -0.057976      0.362494
Pb       3.61051     14.96507      0.02867         0.653644     -0.393759     -0.663503
Pb       0.02687      3.65637      4.02222        -0.393027      0.608849      0.472139
Pb       0.09998      3.75788      0.02982        -0.988666      0.010426     -0.095633
Pb       0.08338     14.97993      3.95971        -0.306150     -0.908283      0.898182
Pb      14.93279     14.97761      0.03846         0.200129     -0.043010     -0.196003
Pb       3.90770      3.74562      8.22393        -1.064419      0.107885      0.038594
Pb       3.73800     14.90746      8.21547        -0.202810      0.593610      0.121068
Pb       0.06071      3.72392      8.21930        -0.274007     -0.286165      0.186288
Pb       0.05506      0.02519      8.25089        -0.237084      0.366338     -0.320931
Pb       3.64325      3.79679     12.31142         0.438002     -0.174849      0.183705
Pb       3.79682      0.02056     12.27447        -0.539824     -0.638171      0.738650
Pb      14.98213      3.63131     12.31966         0.257233      0.242306     -0.028387
Pb      14.95310     14.98614     12.36516         0.434953     -0.004327     -0.315040
Pb       3.67647      7.44785      3.99882         0.184854      0.393001      0.965613
Pb       3.69317      7.38919      0.01772         0.518617      0.490348     -0.043733
Pb      14.91857      7.42638      4.08383         0.087516      0.187823      0.273525
Pb       0.02838      7.50076     16.39126        -0.170591      0.172125      0.425960
Pb       3.70703      7.44212      8.16236         0.036085      0.395879     -0.070853
Pb      14.93330      7.43998      8.22495         0.291074      0.242098     -0.405986
Pb       3.79292      7.59475     12.28813        -0.133404     -0.346993      0.519478
Pb       0.09866      7.47618     12.38586        -0.033137     -0.148030     -0.201941
Pb       3.69201     11.35886      4.04550         0.229578     -0.611738      0.778343
Pb       3.73769     11.25398     16.39990        -0.169531     -0.137049     -0.492471
Pb      14.96397     11.32155      4.07793         0.275079     -0.319763      0.163051
Pb      14.95875     11.17882     16.37419         0.254074      0.168980      0.162082
Pb       3.79057     11.21681      8.21079        -0.296156     -0.606478     -0.500656
Pb      14.91175     11.23919      8.33308         0.350376     -0.320580     -0.602142
Pb       3.76494     11.32692     12.30708        -0.393628     -0.497817      0.573930
Pb      15.00847     11.22697     12.31539         0.004834      0.206220     -0.418863
Pb       7.51181      3.58940      4.09082        -0.010789      0.678244      0.575515
Pb       7.47164      3.77783     16.33576        -0.172036      0.333000      0.875644
Pb       7.44565     14.99118      4.00119        -0.214419      0.238280      1.391748
Pb       7.45293      0.04265      0.05989        -0.250063     -0.406246     -0.212925
Pb       7.53161      3.77770      8.27026        -0.357662     -0.115882     -0.583074
Pb       7.57454     14.87404      8.25242        -0.974607      0.956618     -0.203549
Pb       7.55217      3.67048     12.22595        -0.951383     -0.050997      0.440673
Pb       7.50954     14.97071     12.35839        -0.184644      0.160143     -0.348276
Pb       7.44979      7.52131      4.03469         0.136315      0.200289      0.480292
Pb       7.46323      7.54929      0.07642        -0.059096     -0.289881      0.082491
Pb       7.43753      7.60030      8.26414         0.114612     -0.701186     -0.596254
Pb       7.48317      7.35614     12.29420        -0.066493      0.344528      0.191158
Pb       7.50835     11.33985      4.04739        -0.108141     -0.551121      1.519372
Pb       7.53993     11.21923      0.05924        -0.294846      0.075495      0.080278
Pb       7.47604     11.24273      8.30442        -0.244780     -0.379334     -1.362694
Pb       7.50104     11.15924     12.40826        -0.301087      0.113629     -0.235967
Pb      11.28531      3.71030      4.03421        -0.339587      0.295948      0.448106
Pb      11.14088      3.66781     16.35768         0.513628      0.231700      0.645238
Pb      11.22312      0.03413      4.07403         0.195923      0.064862      0.383948
Pb      11.08117     14.89335      0.05489         0.940350      0.864380      0.382306
Pb      11.17265      3.75980      8.12919         0.380656     -0.086783      0.053581
Pb      11.24031     14.99941      8.22353         0.419841      0.271630     -0.337257
Pb      11.31714      3.71417     12.36140        -0.342634     -0.049031      0.512353
Pb      11.23665      0.01724     12.25916        -0.069207     -0.491617      0.087864
Pb      11.11470      7.43339      4.09083         0.700492      0.000206      0.020836
Pb      11.22348      7.52832     16.35403        -0.344362     -0.115714      0.846460
Pb      11.17213      7.51555      8.26339         0.076811     -0.534177     -0.771441
Pb      11.32274      7.53222     12.32462        -0.246441     -0.290764      0.834766
Pb      11.29846     11.26605      4.13939        -0.568026     -0.355471      0.099665
Pb      11.26476     11.25578      0.07665        -0.339251     -0.283660     -0.011175
Pb      11.17319     11.14686      8.20477         0.507045      0.530200     -0.005524
Pb      11.25804     11.28572     12.32062         0.668196      0.064955     -0.288425
Ti       1.83836      1.91566      2.02958         1.098074     -1.093912      1.073911
Ti       1.87196      1.90255     14.46336        -0.327260     -1.139173     -0.642248
Ti       1.88995     13.05253      2.06298        -1.002254      0.604126     -0.008591
Ti       1.82483     13.12664     14.39433         0.967676     -0.078613      0.074922
Ti      13.12616      1.82887      2.12791        -0.489228      0.200807     -0.319508
Ti      13.11896      1.90993     14.49267         0.115442     -1.930099     -0.062970
Ti      13.02334     13.05806      2.08238         1.263156      0.637746      0.862270
Ti      13.13994     13.13910     14.49012        -0.078908     -0.020237     -1.170522
Ti       1.87258      1.87804      6.15466         1.116229     -0.132213      1.084719
Ti       1.78662     13.09529      6.19457         0.183961      0.915205      0.576448
Ti      13.10759      1.86451      6.21736        -0.338149      0.189882      0.204773
Ti      13.06704     13.14494      6.23977         0.395615     -0.328780     -0.722638
Ti       1.89464      1.84939     10.33516        -1.165564     -0.650957      0.132811
Ti       1.88769     13.09150     10.24415        -0.110996      0.891695      1.481456
Ti      13.04010      1.85851     10.38331         1.808170      1.206833     -1.578058
Ti      13.16376     13.14879     10.27910        -0.347040     -0.493798      0.500167
Ti       1.88795      5.61566      2.12874        -0.855331      0.347261     -0.633366
Ti       1.87217      5.59685     14.50160         0.468540      0.360787     -1.161175
Ti      13.12988      5.56484      2.04717        -0.585788      0.751853      1.130017
Ti      13.11739      5.64457     14.55968        -0.334850     -0.934435     -0.483564
Ti       1.81947      5.61269      6.24732         1.553066      0.493891      0.193204
Ti      13.05131      5.61093      6.23907        -0.025230      0.191230     -1.044076
Ti       1.86036      5.57449     10.35367         0.652011      0.026985      0.010338
Ti      13.08022      5.59750     10.38808         1.552969     -0.594715     -1.141215
Ti       1.80697      9.33799      2.10858        -0.372520      0.428734      0.147950
Ti       1.82396      9.35552     14.44516         1.406887      0.415215     -0.406956
Ti      13.09044      9.35690      2.14942         0.313561     -1.205072     -0.614977
Ti      13.08003      9.33164     14.45627         0.418043      1.369026     -0.262208
Ti       1.85431      9.42862      6.20086        -0.104772     -1.040810     -0.210652
Ti      13.09825      9.35885      6.17690         0.195785      0.275422      1.432989
Ti       1.91345      9.28246     10.32057        -0.014564      1.349758     -0.499073
Ti      13.13187      9.28889     10.34475         0.278069      1.338487      0.263909
Ti       5.59459      1.90713      2.15412         0.011421     -0.874027      0.714431
Ti       5.62391      1.86174     14.45734        -0.459567     -0.586289     -0.237838
Ti       5.59233     13.14048      2.07697         0.277806     -0.603078     -0.488312
Ti       5.64858     13.04793     14.42639        -1.559805      0.881948      1.166042
Ti       5.52442      1.81388      6.25699         1.142722      0.690065     -0.415210
Ti       5.55890     13.14544      6.26373         0.682079     -1.046725     -1.089081
Ti       5.52196      1.79341     10.33339         1.879963      0.376244      0.658622
Ti       5.65972     13.06848     10.31654        -1.118071      0.340503      0.755927
Ti       5.63247      5.63501      2.20832         0.589761     -0.327590     -0.975785
Ti       5.59909      5.59921     14.40321         0.159267      0.547935      0.158880
Ti       5.59420      5.64156      6.18497         0.332921     -0.316445     -0.676041
Ti       5.57949      5.55776     10.32414         0.859040      0.323611      0.562333
Ti       5.53801      9.41683      2.14440         0.460653     -0.138862     -0.706958
Ti       5.63482      9.29106     14.51504        -0.967372      0.072281      0.098597
Ti       5.64938      9.32666      6.14232        -0.547978      0.835913      1.270207
Ti       5.70231      9.37431     10.39578        -1.425187     -0.692777     -1.110689
Ti       9.34874      1.86247      2.12369         0.627402      0.879314      0.588078
Ti       9.32973      1.87138     14.45652         0.774919     -0.060287     -0.487771
Ti       9.31749     13.15353      2.23464         1.269621     -0.543982     -0.524820
Ti       9.39319     13.14402     14.45374        -0.075669     -0.125000      0.696894
Ti       9.27166      1.84640      6.25710         0.405573      1.019856     -0.780222
Ti       9.32526     13.20338      6.24249        -0.065054     -1.502573     -0.588525
Ti       9.32428      1.81983     10.27699        -0.786575      0.038729      0.035281
Ti       9.35158     13.01284     10.25668         0.833324      2.198701      0.581921
Ti       9.32275      5.61198      2.09237         0.456607     -0.060437      0.228975
Ti       9.34763      5.67235     14.49243        -0.102918      0.327339      0.825570
Ti       9.26682      5.59621      6.12844         0.935264      0.289859      0.568138
Ti       9.43694      5.58384     10.41397        -0.632741      0.606709     -0.522477
Ti       9.28331      9.37230      2.12575         0.631876      0.895568      0.068086
Ti       9.37024      9.40922     14.39328        -0.494237     -0.340158      0.166678
Ti       9.37956      9.40703      6.22801        -1.233330     -0.457387     -1.327226
Ti       9.42077      9.35389     10.34669        -0.323355     -0.652042      0.591611
O       1.73750      1.96626      0.25530         0.448253     -0.558854      0.252328
O       1.82543      1.93678     12.65363         0.058471     -0.105192     -0.034097
O       1.84884     13.06739      0.30571         0.245080      0.115829     -0.730404
O       1.89703     13.20284     12.60011        -0.481593     -0.617558      0.544037
O      13.26819      1.85560      0.35523        -0.196236      0.123056     -0.456317
O      13.15237      1.93970     12.62466        -0.448917     -0.465374     -0.151408
O      12.99496     13.08404      0.30263         0.511594     -0.091924     -0.135449
O      13.15152     13.23739     12.64502        -0.285522     -0.381252     -0.241406
O       1.99851      1.85771      4.37625        -0.450682      0.317020     -0.498524
O       1.93885     13.11936      4.40207        -0.219454     -0.073759     -0.840631
O      13.04208      1.81691      4.40011         0.677707      0.107217      0.388636
O      13.07670     13.11898      4.36846        -0.062656      0.078499      0.429712
O       1.91293      1.82808      8.54998        -0.116218     -0.054961     -0.361626
O       1.79283     13.07285      8.45332         0.052733      0.427191     -0.302319
O      13.05940      1.96221      8.56365         0.168411     -0.336064     -0.567994
O      13.17474     13.11843      8.48241        -0.104648      0.241510     -0.098005
O       1.96205      5.58269      0.30890        -0.512106      0.129299      0.185505
O       1.95268      5.61030     12.65850        -0.357127      0.015505      0.229998
O      13.12118      5.51365      0.27994        -0.053003      0.425389     -0.246165
O      13.03267      5.66679     12.75038         0.289910     -0.394476     -0.273365
O       1.87693      5.56810      4.44768        -0.147485      0.056403     -0.585602
O      13.11969      5.66953      4.35797         0.031484     -0.542907      1.165912
O       1.93930      5.56730      8.58520        -0.370983      0.276729     -1.180180
O      13.03987      5.67859      8.56033         0.233605     -0.227959      0.271408
O       1.79346      9.36508      0.27525        -0.137178     -0.232707      1.014470
O       1.92621      9.25982     12.60424        -0.694565      0.364819      0.046106
O      13.20283      9.43075      0.31712        -0.314524     -0.448642     -0.120912
O      13.05169      9.30997     12.63948         0.413315      0.313808     -0.138808
O       1.73897      9.47952      4.39571         0.758639     -0.507520      0.412799
O      13.10280      9.32637      4.42690        -0.316731      0.314998     -0.880458
O       1.87102      9.44538      8.48954        -0.234617     -0.346755      1.261710
O      13.09855      9.41587      8.55607         0.167636     -0.302981      0.070077
O       5.70986      1.94703      0.39553        -0.302757     -0.379884     -0.965517
O       5.71443      1.82385     12.67261        -0.045811      0.163778     -0.011682
O       5.54102     13.11220      0.26272         0.249909     -0.120171      0.825425
O       5.52986     13.14870     12.65235         0.739472     -0.267776     -0.402229
O       5.44773      1.73688      4.43960         0.479089      0.425928      0.169389
O       5.44198     13.07784      4.42202         0.660372      0.562167      0.558302
O       5.55497      1.83514      8.58337         0.134417      0.176531     -0.984981
O       5.64963     13.03414      8.51942        -0.115920      0.021113      0.079197
O       5.59457      5.51779      0.39789        -0.047320      0.071130      0.062787
O       5.69759      5.60060     12.59605        -0.314555      0.205153      0.273896
O       5.62700      5.63002      4.33240        -0.259428      0.262710      0.576532
O       5.59485      5.58372      8.53796         0.167003      0.291854     -0.391806
O       5.63098      9.47714      0.30775        -0.177067     -0.064753      0.547323
O       5.70040      9.26998     12.69814         0.060370      0.141104     -0.237316
O       5.69314      9.36298      4.38682        -0.496211     -0.327266     -0.911861
O       5.76266      9.31242      8.51849        -0.392780      0.550475      1.163911
O       9.35968      1.78511      0.35352        -0.191382      0.490425     -0.621404
O       9.35302      1.90669     12.61644         0.075754     -0.639376      0.733672
O       9.52302     13.18364      0.43025        -0.722302     -0.468506     -0.737768
O       9.48274     13.11444     12.68143        -0.349940     -0.064339     -0.378429
O       9.28462      1.92921      4.42130         0.367697     -0.420581      0.029681
O       9.24049     13.20417      4.41906         0.669072     -0.040256     -0.170213
O       9.24254      1.93529      8.44812         0.525367     -0.592966      1.175849
O       9.33202     13.10306      8.45654        -0.001785      0.256550      0.396394
O       9.30843      5.78982      0.31987         0.078003     -0.703179     -0.226786
O       9.48145      5.74127     12.75361        -0.282199     -0.409077     -1.846967
O       9.46634      5.47103      4.35202        -0.689458      0.757486      0.115905
O       9.50526      5.67939      8.63426        -0.360981     -0.372358     -0.147832
O       9.20607      9.43493      0.29607         0.870997     -0.027826      0.948632
O       9.40788      9.36442     12.55993        -0.169053      0.516133      0.506694
O       9.26979      9.46806      4.38576         0.619328     -0.441014      0.385366
O       9.24922      9.31879      8.53140         0.362134      0.186330      0.324250
O       3.71688      2.01540      2.32992        -0.009071     -0.451958     -0.242071
O       3.74797      1.86251     14.72135         0.312113      0.187485      0.372559
O       3.74509     12.98825      2.31250         0.298075     -0.039752      0.131640
O       3.71358     13.09994     14.80670         0.224192      0.004870     -0.264389
O       0.03942      1.75413      2.54507        -0.519238      0.768908     -0.619720
O      14.97984      1.91387     14.69586         0.790599      0.201947      0.081858
O       0.03367     13.16987      2.33581        -1.856972      0.141594      0.329036
O      14.99646     13.11969     14.77028         0.511281     -0.642700      0.060332
O       3.74060      1.65205      6.61307        -0.989318      0.492205     -0.066399
O       3.72285     13.23075      6.56567        -0.680273     -0.514706      0.069202
O       0.08405      1.92711      6.50118        -2.328768      0.841752      0.072063
O      14.94135     13.04215      6.38685        -0.210869     -0.100360      0.348274
O       3.75460      1.91517     10.73044        -0.423736      0.035255      0.144637
O       3.73545     12.99572     10.76296         0.642677      0.195748     -1.328045
O       0.01622      1.80424     10.51705        -0.026435     -0.031266      0.566831
O       0.01401     13.20128     10.65004        -0.125424      0.281393     -0.208673
O       3.73836      5.58170      2.38434         0.172783      0.073337      0.427746
O       3.71629      5.65295     14.77639         0.781464     -0.113760     -0.229553
O       0.00631      5.68140      2.31377        -0.683094     -0.510006      0.258762
O      14.99604      5.58705     14.78396        -0.293969     -0.153997     -0.170745
O       3.77324      5.78461      6.49521        -1.046928     -0.287831      0.034160
O       0.02490      5.62482      6.61005        -1.612526     -0.535806     -0.081575
O       3.78547      5.46810     10.52835        -0.544345      0.357663      0.784397
O       0.07444      5.74445     10.63310        -1.986785      0.005356      0.217841
O       3.69905      9.46054      2.41319        -0.301607     -0.330337      0.080429
O       3.66822      9.21668     14.76278         1.322602      0.356709     -0.036024
O      15.00867      9.26009      2.51791        -0.462449      0.231873     -0.536195
O      14.99113      9.30033     14.70929        -0.876936      0.299528     -0.160405
O       3.71069      9.37266      6.66078         0.593652     -0.001379     -0.804442
O      14.94110      9.43499      6.51500        -0.263862      0.088986      0.221812
O       3.79829      9.45938     10.72861        -0.550836      0.227100     -0.633249
O      14.99346      9.29641     10.62985         0.618603     -0.283717      0.154057
O       7.51097      1.78219      2.52939        -0.943924     -0.360513     -0.527732
O       7.49867      1.86028     14.88272        -0.012915      0.326167     -0.707304
O       7.52977     13.33289      2.36995        -1.969026     -0.472713     -0.156887
O       7.44165     13.15128     14.82678         1.741510     -0.413824     -0.513434
O       7.43634      1.96948      6.56218        -1.140638     -0.271976     -0.085788
O       7.47400     13.19315      6.58496        -0.570074     -0.424683     -0.092273
O       7.46153      1.67337     10.66596         0.006687      0.776270     -0.077145
O       7.49782     13.03146     10.68880         0.306080      0.470447     -0.030848
O       7.47833      5.66545      2.42933         0.463252      0.465376      0.157827
O       7.49614      5.63238     14.76301        -0.286085     -0.014453     -0.292378
O       7.46047      5.61792      6.61686         0.190408      0.004732     -0.231300
O       7.52186      5.71685     10.60203         0.506886     -0.043632      0.141156
O       7.42448      9.27332      2.36217         0.695003     -0.080898      0.188837
O       7.50242      9.35861     14.79861        -0.101917      0.397642     -0.624010
O       7.51589      9.34334      6.45760        -0.638387     -0.161714      0.493640
O       7.51822      9.32365     10.67522         1.223237     -0.087705      0.140804
O      11.23763      1.95720      2.46016        -0.040390      0.091914     -0.363769
O      11.24289      1.76018     14.88422        -0.143050      0.086558     -0.861860
O      11.21248     12.91276      2.47398         0.659120      0.459898     -0.044573
O      11.31097     13.25083     14.75946        -1.788888     -0.343724     -0.370751
O      11.16271      1.84873      6.45428         1.217537     -0.173841      0.370974
O      11.20318     13.26983      6.50937        -0.272266      0.034475      0.169195
O      11.20865      1.88079     10.54339        -0.977626      0.282701      0.550794
O      11.25472     13.10483     10.50802        -0.123146      0.332342      0.433818
O      11.20061      5.50400      2.33073         0.919210      0.123897      0.063716
O      11.16872      5.60246     14.87841         1.722158      0.310698     -0.093882
O      11.20823      5.64058      6.46615        -0.217246     -0.319038      0.195408
O      11.30066      5.32645     10.71069        -0.725443      0.600872     -0.038598
O      11.24511      9.48251      2.34494        -1.010538      0.217046      0.173529
O      11.19261      9.36808     14.68387         0.916220     -0.041446      0.404070
O      11.17575      9.40111      6.64593         1.069201     -0.481633     -0.350620
O      11.27212      9.56755     10.57916        -0.104942     -0.442934      0.042826
O       1.89689      3.79487      2.45958        -0.990628     -1.391394     -0.183898
O       1.90957      3.72657     14.79765        -0.086392      0.711531     -0.230762
O       1.93576     14.99314      2.27042         0.271943      0.696728      0.223234
O       1.88321     14.99085     14.73556        -0.318118      0.483547      0.282961
O      13.21339      3.67807      2.37888         0.270975      1.203879      0.429227
O      13.07619      3.67070     14.76972        -0.259454      2.130493     -0.054966
O      12.94674      0.00391      2.26327         0.408171     -1.722662      0.669023
O      13.36113     14.96245     14.70920        -0.933013      1.232320      0.110983
O       2.11163      3.77064      6.54539        -0.674430     -0.733861     -0.217942
O       1.66058      0.00765      6.39454         0.639931     -0.615795      0.431901
O      13.01278      3.75327      6.57073         0.731710     -0.240831     -0.367334
O      13.12587      0.03317      6.53853         0.220888     -0.143472      0.317873
O       1.87753      3.72123     10.64675        -0.321194     -0.051928      0.257180
O       2.02249     14.96999     10.69584        -0.344291      0.359839     -0.678705
O      13.31181      3.74697     10.62461        -0.198326      0.200421      0.405497
O      13.11520      0.06569     10.49546        -0.259801     -2.078383      0.669639
O       1.80054      7.42344      2.53208         0.909921      1.485244     -0.436421
O       1.80552      7.47810     14.74633        -0.284500     -0.635191      0.169884
O      13.02247      7.50471      2.40561         0.071703     -1.234318     -0.155021
O      13.15924      7.51232     14.77681        -0.440332     -1.011377      0.280376
O       1.79376      7.50189      6.50515         0.051512      0.455877      0.219672
O      13.03286      7.47634      6.55057         0.510058      0.756361      0.044202
O       2.03626      7.46306     10.62878        -0.138812      0.498100     -0.127704
O      13.00918      7.44059     10.65075        -0.112421      0.811889     -0.036221
O       1.79454     11.23395      2.41873        -0.161317     -0.716013     -0.152552
O       1.83337     11.21075     14.73899         0.022516      0.428653     -0.341031
O      13.20878     11.16073      2.36154         0.205568      2.320347      0.495174
O      13.08807     11.21561     14.72576         0.114211      0.238199     -0.154397
O       1.87670     11.27534      6.47451         0.239656     -0.148090      0.246169
O      12.89058     11.28803      6.56005         0.574094     -0.640620     -0.446479
O       1.77624     11.29421     10.57234        -0.100124     -1.708357      0.389602
O      13.22593     11.28699     10.65003         0.088142     -0.501696      0.085785
O       5.75906      3.69462      2.46576        -0.487206      0.714128      0.046791
O       5.59384      3.82241     14.84550         0.133388     -1.770201     -0.518263
O       5.50937     14.93357      2.45535        -0.006088      1.343643     -0.382376
O       5.62206      0.00285     14.71256         0.010119     -0.014291      0.295921
O       5.46017      3.81918      6.49566         0.280501     -1.925693     -0.058674
O       5.58437     14.99361      6.63431         0.785857     -0.218122      0.016646
O       5.64902      3.68814     10.65502         0.721912      0.103713     -0.114720
O       5.51967     14.91229     10.58073         0.212809      0.189945      0.150063
O       5.56550      7.50694      2.31181        -0.319196      0.282546      0.469946
O       5.60534      7.42426     14.93814         0.176737      0.434905     -0.599857
O       5.56378      7.48191      6.45897         0.677906      0.857972      0.364488
O       5.53525      7.51982     10.66088         0.441946     -0.684903     -0.265475
O       5.80840     11.25592      2.50501        -0.753633      0.590072     -0.860915
O       5.56916     11.15960     14.64539         0.102111      0.872493      0.032996
O       5.62538     11.21334      6.48149        -0.202142      0.606928      0.456968
O       5.71579     11.23807     10.72973        -0.061712     -0.485415      0.063735
O       9.21140      3.75909      2.39629         0.254796     -0.399775     -0.411793
O       9.42742      3.72774     14.69149        -0.316995      0.305471      0.223909
O       9.47606      0.02898      2.37802         0.259108     -0.505486      0.532026
O       9.32625      0.00969     14.81188        -0.214019     -0.756246     -0.531551
O       9.30478      3.72394      6.52753         0.233883      1.235246      0.322955
O       9.26273      0.01851      6.48151         0.073631      0.030524      0.674483
O       9.24685      3.71337     10.69288         0.313688     -0.285552     -0.492135
O       9.29970     14.96772     10.66650         0.777004     -0.352370     -0.338692
O       9.45529      7.55670      2.46204        -0.355643     -1.035733     -0.144025
O       9.35876      7.59518     14.86189         0.013005     -0.807613     -0.710551
O       9.38557      7.46396      6.45042        -0.092340      0.241820      0.023706
O       9.66884      7.48042     10.69070        -0.699317      0.261394     -0.604435
O       9.20404     11.29756      2.47450         0.141454     -0.923121     -0.559606
O       9.42712     11.28938     14.86034        -0.294371      0.171435     -0.749825
O       9.33165     11.28407      6.48802         0.214505      0.014324      0.348465
O       9.40481     11.25797     10.57042        -0.529689     -1.204945      0.449711
