  # total energy = -7882.58738454 
CRSYTAL
PRIMVEC
    15.3600000000000000    0.0000000000000000    0.0000000000000000
     0.0000000000000000   15.3600000000000000    0.0000000000000000
     0.0000000000000000    0.0000000000000000    17.440000000000000
PRESSURE
1.88698 1.78843 2.34273 0.450729 0.182169 -0.005567
PRIMCOORD
320 1
Pb       3.92779      3.77750      4.33076        -0.152284      0.077993     -0.314488
Pb       3.82637      3.79517     17.39836         0.177886     -0.024152      0.364562
Pb       3.82118      0.00646      4.37052         0.222162      0.028416      0.346008
Pb       3.86797     15.32062     17.30576        -0.192875      0.197408      0.276591
Pb       0.03409      3.85925      4.29586         0.432360     -0.048883     -0.157900
Pb      15.33479      3.74851     17.39379        -0.357599      0.381617      0.312572
Pb       0.01337     15.35641      4.36282        -0.143174     -0.172668     -0.017420
Pb      15.29569      0.08724     17.34095         0.559547     -0.428492      0.509115
Pb       3.74832      3.92485      8.59122         0.061705     -0.240757      0.915664
Pb       3.69544     15.26090      8.71988         0.244746      0.747135      0.750564
Pb      15.25015      3.87374      8.69673         0.564137     -0.038604      0.363777
Pb      15.33041     15.27444      8.68716        -0.222818      0.302198      0.565357
Pb       4.03032      3.76615     12.96176        -0.997890      0.382269      0.317215
Pb       3.86032     15.34051     12.97908        -0.266944      0.107706     -0.392878
Pb       0.00237      3.79421     13.01105         0.167138      0.112295      0.072210
Pb      15.26865     15.22723     13.00261         0.214280      1.327326      0.768348
Pb       3.86816      7.70830      4.29792        -0.122039     -0.252850      0.401324
Pb       3.77835      7.71430      0.01282         0.476174     -0.367988     -0.327203
Pb      15.35408      7.60205      4.27055         0.304408      0.404902      0.196339
Pb       0.16135      7.67347      0.02251        -0.866689      0.037469     -0.507303
Pb       3.72062      7.62508      8.63049         0.406752      0.472397     -0.108471
Pb      15.18480      7.70790      8.68439         0.696179      0.178736     -0.096534
Pb       3.87064      7.60889     13.10641         0.005089      0.274477     -0.235472
Pb       0.00697      7.68601     13.02332        -0.404009     -0.159961      0.011598
Pb       3.83956     11.46774      4.38495         0.259451      0.304548      0.444355
Pb       3.74082     11.48344     17.38466         0.511669      0.242873     -0.586388
Pb       0.03486     11.55251      4.21891        -0.340725     -0.154574      0.871484
Pb      15.24273     11.44021      0.04824        -0.236629      0.139621     -0.502385
Pb       3.83850     11.43420      8.70028        -0.350104      0.132927      0.072233
Pb       0.02737     11.52387      8.70478        -0.014694     -0.116648     -0.529468
Pb       3.84084     11.37469     12.89160         0.178464      0.140233      0.425104
Pb       0.03965     11.39466     13.02046        -0.064423     -0.236031      0.219568
Pb       7.65635      3.82490      4.21993        -0.331814     -0.188372      0.742729
Pb       7.70156      3.73266      0.03235        -0.429810      0.410239     -0.373582
Pb       7.63722     15.26344      4.35738         0.253915      0.150356      0.477292
Pb       7.54815     15.29235     17.42371         0.186187     -0.179309     -0.298832
Pb       7.50654      3.91105      8.57671         0.414275      0.144893      0.642755
Pb       7.65197      0.13399      8.67803        -0.051833     -0.392985      0.380864
Pb       7.66440      3.83457     12.99105         0.106940      0.036021     -0.390486
Pb       7.71598     15.33145     12.93177        -0.632864      0.804684      0.336605
Pb       7.68413      7.68874      4.30380         0.437904      0.161209      0.186032
Pb       7.58450      7.65511     17.43646         0.031091      0.207666      0.059040
Pb       7.73956      7.64232      8.71063        -0.171755      0.158246     -0.194581
Pb       7.70735      7.66891     13.13686        -0.183877      0.244280     -0.499205
Pb       7.64466     11.38786      4.32894         0.266225      0.331924     -0.081609
Pb       7.51199     11.61265     17.24782         0.059869     -0.482227      0.862904
Pb       7.85203     11.50461      8.77452        -0.993936      0.103416     -0.145995
Pb       7.66710     11.62523     12.96568        -0.096123     -1.376218      0.420042
Pb      11.54268      3.72027      4.27196        -0.338228      0.001371      0.565718
Pb      11.51738      3.82366      0.07973         0.055182     -0.066577     -0.779313
Pb      11.63811     15.33436      4.35570        -0.500629     -0.561240     -0.278853
Pb      11.33138     15.30186     17.43610         0.301248      0.216495     -0.010329
Pb      11.55667      3.81857      8.60159        -0.491293      0.116980      0.512351
Pb      11.42969      0.04967      8.64178         0.293518     -0.453223      0.581723
Pb      11.44418      3.80802     13.00677         0.239398      0.396776      0.511170
Pb      11.39476     15.30045     13.12199         0.468436      0.359696     -0.418075
Pb      11.56971      7.53343      4.27873        -0.728031      1.169397      0.634752
Pb      11.37431      7.74061     17.38980         1.096085     -0.579853      1.050463
Pb      11.57043      7.69893      8.61616        -0.288909     -0.486293     -0.179817
Pb      11.44139      7.55843     13.15800         0.833916     -0.071412     -0.479889
Pb      11.42591     11.53791      4.23927         0.449051      0.000038     -0.059852
Pb      11.45711     11.54543     17.38186         0.430575     -0.083960      0.652361
Pb      11.34483     11.41459      8.73048         0.726532      0.614598     -0.364008
Pb      11.58176     11.46850     13.08247         0.294356      0.053265      0.145078
Ti       1.89862      1.86749      2.33146         1.167420      0.576942     -0.426595
Ti       1.89150      1.94287     15.42624         0.003436     -0.262693     -0.098249
Ti       1.99543     13.40510      2.24207        -0.482400      0.693627      1.529987
Ti       1.86742     13.46153     15.27219         1.134558     -0.266621      0.334797
Ti      13.43826      1.91735      2.32595         0.238922     -0.690055     -0.887871
Ti      13.35175      1.86925     15.38468        -0.178790      0.858942      1.578230
Ti      13.54548     13.40651      2.32136        -2.934514     -0.615198     -1.098025
Ti      13.44934     13.44887     15.49644        -0.108501     -1.020513     -0.418082
Ti       1.87084      1.95918      6.74735        -0.064691      0.236757      1.289775
Ti       1.89691     13.51891      6.70253        -0.467898     -1.514435      0.320961
Ti      13.45086      1.86475      6.71067        -0.404574     -0.417747      0.293880
Ti      13.36897     13.40436      6.74728         0.555593     -0.260767     -0.608977
Ti       1.83354      1.93630     11.01629         1.047258      0.221191      2.446210
Ti       1.88487     13.42504     11.11040         0.712250      0.321445      0.851684
Ti      13.39116      1.89579     10.99112         0.091139     -0.141428      1.277321
Ti      13.40951     13.42241     11.09780        -0.334172      0.179262     -0.629762
Ti       1.89391      5.77388      2.25316         0.928454     -0.759717      0.296224
Ti       1.88814      5.69595     15.47157         0.058422      1.344419      0.649658
Ti      13.39863      5.72132      2.37301         0.191347      0.941432     -1.035774
Ti      13.40547      5.70998     15.55929        -0.841234      0.246991     -0.231715
Ti       1.85137      5.80393      6.67968         0.535388      0.431420      0.422780
Ti      13.47473      5.68375      6.59877        -0.771619      0.823069      0.028254
Ti       1.89662      5.79798     10.99863        -0.233919     -0.585206      1.840455
Ti      13.43251      5.66130     11.01375        -0.293525      2.118660     -0.232990
Ti       2.00922      9.63013      2.27084        -0.664709     -0.398248      0.314825
Ti       1.96072      9.62397     15.40487         0.165964     -0.393952      0.124610
Ti      13.50112      9.61035      2.32880        -0.938590      0.993777      0.167688
Ti      13.48068      9.52729     15.45289         0.212048      0.109754      0.438194
Ti       1.99908      9.65641      6.56034        -1.251034     -0.121505      2.363244
Ti      13.47567      9.60099      6.58820         0.406749      0.576833      2.590873
Ti       1.98902      9.55675     10.99328        -0.463969      0.252371      0.763217
Ti      13.40643      9.55174     10.98540         1.049570     -0.663302      1.561737
Ti       5.74218      1.86758      2.31263        -0.813868      0.600911      1.404936
Ti       5.71829      1.84835     15.34036        -0.097759      0.974030      0.085927
Ti       5.64337     13.46080      2.37839         2.127286     -0.033310      0.919059
Ti       5.70997     13.39449     15.18260         0.040551     -0.215892      3.077000
Ti       5.68466      1.87962      6.75810         0.572796      0.919583     -0.847441
Ti       5.69008     13.44003      6.88378         0.630310     -0.044467     -0.586878
Ti       5.69459      1.92520     10.92096         0.542979      0.051743      1.827266
Ti       5.78963     13.41410     10.93817        -1.491078      0.138191      1.126136
Ti       5.71525      5.79757      2.37697         0.053885     -0.290254      1.305388
Ti       5.73360      5.68775     15.44386        -0.131400      0.272894      0.556285
Ti       5.65637      5.80510      6.58555         1.080547     -0.011667      0.688952
Ti       5.72908      5.83004     11.02486         0.534159     -0.148860      0.316355
Ti       5.75858      9.65023      2.34156         0.878571     -0.381645      0.042023
Ti       5.76193      9.53307     15.46180        -0.438951      0.071148     -0.524181
Ti       5.77512      9.60814      6.71772         0.078026      0.014330      0.157169
Ti       5.85532      9.55441     10.92970        -0.448075     -0.264927      1.682298
Ti       9.51131      1.89152      2.34147         0.565172     -1.504635      1.053397
Ti       9.44416      1.91527     15.38369         1.230516     -0.071825     -1.009975
Ti       9.51599     13.43793      2.37289         1.070484     -0.143672      0.217011
Ti       9.56631     13.36649     15.37168         0.169609      1.209760      1.982394
Ti       9.52858      1.93898      6.69754         0.780010      0.785887     -1.043650
Ti       9.46893     13.52681      6.69693         0.735015     -1.081892     -0.242339
Ti       9.59641      1.93178     11.05306        -0.208956      0.461388     -0.892398
Ti       9.59148     13.41265     11.05868         0.864553      0.333608     -1.944574
Ti       9.53553      5.68990      2.34729         0.366173      1.161976      0.408329
Ti       9.54221      5.80681     15.46515         0.517277     -1.381665      0.459381
Ti       9.50900      5.71066      6.71983         1.041525      1.275955      0.462973
Ti       9.63467      5.79187     10.91692         0.078339     -0.343211     -0.504942
Ti       9.64357      9.60473      2.30110         0.093978     -0.597779      0.328741
Ti       9.63259      9.63103     15.48084        -1.590818     -0.351881     -0.464667
Ti       9.58705      9.58110      6.71736        -0.064676     -0.275934     -1.413971
Ti       9.67841      9.57855     11.07996        -0.608524     -0.178987     -0.952042
O       2.00782      1.88362      0.57703        -0.426114      0.044303     -0.033355
O       1.83231      1.98983     13.70040         0.023671      0.094650     -0.443268
O       1.96570     13.38100      0.53881         0.282699      0.092626     -0.752536
O       1.96611     13.40551     13.47778        -0.311398      0.263577      1.240196
O      13.27552      1.89169      0.55121         0.864740     -0.096467      1.135794
O      13.44027      2.00169     13.67687        -0.128505     -0.230005     -0.872852
O      13.50037     13.28401      0.50079         0.051729      0.263213      0.501821
O      13.36508     13.45963     13.72528         0.115272      0.054393     -0.199055
O       1.83676      1.85974      5.04461         0.172425      0.168828     -1.095360
O       1.96200     13.38649      4.97643        -0.352679      0.348038     -0.879879
O      13.38523      1.76951      4.95072         0.396097      0.545863     -0.678996
O      13.50384     13.49675      4.97066         0.038852     -0.141455      0.147588
O       1.93633      1.97484      9.34967        -0.183107     -0.249476     -2.662890
O       1.80279     13.52506      9.37676         0.195830     -0.024023     -0.675903
O      13.31427      2.03966      9.26029         0.116984     -0.435837     -0.105979
O      13.54031     13.36122      9.35236        -0.222254      0.126570      0.132180
O       2.04827      5.72377      0.47495        -0.634203      0.220207      1.319507
O       1.79797      5.80424     13.74975         0.272513     -0.280786     -0.616484
O      13.32128      5.80756      0.61075         0.058739     -0.540377      0.740833
O      13.29954      5.72533     13.79045         0.259611      0.179114      0.210126
O       1.85716      5.82843      4.96908        -0.320159     -0.360850     -1.405459
O      13.61375      5.71502      4.80116        -0.145507     -0.022631      0.681992
O       1.90063      5.72424      9.29299         0.108336      0.604298     -1.114386
O      13.43085      5.77922      9.23282         0.076498     -0.127897     -0.171907
O       2.04980      9.52995      0.48605        -0.236106      0.630187      0.736091
O       2.00005      9.67940     13.65682        -0.127297     -0.406386     -0.673716
O      13.47298      9.68766      0.58180         0.194012      0.120488     -0.572529
O      13.48603      9.54628     13.70054        -0.162780     -0.000391     -0.055159
O       2.04767      9.63477      4.84842        -0.252416      0.196957     -1.457523
O      13.45717      9.69390      4.91452         0.191439     -0.139589     -1.674024
O       2.11783      9.71945      9.28053        -0.543228     -0.544533     -0.815032
O      13.49629      9.54052      9.23378        -0.264813      0.102067      0.100673
O       5.71534      1.79947      0.59344         0.261520     -0.178023     -1.035728
O       5.79237      2.00940     13.58996        -0.036873     -0.052994     -0.154637
O       5.68746     13.55594      0.65958         0.145462     -0.163615     -0.913202
O       5.80682     13.30717     13.51249        -0.263549      0.405835     -2.252861
O       5.74711      2.00677      4.97036        -0.298266      0.006713      0.367125
O       5.74231     13.48233      5.14394         0.067139     -0.243909     -0.714334
O       5.76959      1.90376      9.21032         0.078485      0.140295     -0.898853
O       5.69027     13.53413      9.23095         0.238503      0.167729     -0.940400
O       5.76884      5.71588      0.69116         0.087386      0.264470     -1.882882
O       5.63358      5.73942     13.69287         0.384925      0.023097     -0.506157
O       5.78657      5.58969      4.85384        -0.159127      0.270797     -0.414304
O       5.76497      5.98317      9.29678        -0.125748     -0.272367     -0.458237
O       5.75701      9.59511      0.60808        -0.131293      0.142208     -1.003151
O       5.67730      9.56773     13.71986         0.134747     -0.455840     -0.704853
O       5.71144      9.65332      4.95072         0.372522      0.215328     -0.125170
O       5.79854      9.36347      9.23650        -0.107452      0.315957     -1.081020
O       9.50043      1.77799      0.61941         0.083316     -0.055261     -1.275803
O       9.49214      1.93326     13.54843         0.013846     -0.003543      0.995894
O       9.57317     13.43739      0.61026        -0.205360      0.207338     -0.857247
O       9.61669     13.35437     13.67087        -0.063207      0.003841     -1.868323
O       9.63097      1.98082      4.87790        -0.073903      0.125459      1.316458
O       9.40367     13.50247      4.91170         0.353120     -0.393821      1.182666
O       9.64820      1.90056      9.24670        -0.088696     -0.249596      0.916935
O       9.72569     13.46995      9.24603        -0.815430     -0.203909      1.063502
O       9.58444      5.71991      0.62645        -0.177364      0.079454     -0.860493
O       9.65199      5.81502     13.71557        -0.156625      0.066557     -0.576149
O       9.48276      5.68295      5.00262         0.116476     -0.132753     -1.451369
O       9.76468      5.88410      9.11866        -0.524647     -0.172285      1.027663
O       9.72383      9.56508      0.53014        -0.531206      0.152972     -0.092797
O       9.45098      9.60691     13.71535         0.854061     -0.027516      0.027946
O       9.49877      9.55412      4.89738         0.208362      0.412149      1.318607
O       9.72260      9.58289      9.23881        -0.147288      0.211280      1.429673
O       3.80775      1.84324      2.83420         0.588744      0.168469     -0.129687
O       3.78842      1.91619     15.76167         0.850953      0.574280     -0.019537
O       3.87571     13.34016      2.85594        -0.909814      1.230472     -0.307871
O       3.92127     13.51676     15.78223        -1.041263     -0.390956     -0.474569
O       0.05693      1.92378      2.74818        -1.171351     -0.334909      0.056324
O      15.32970      1.93509     15.90064        -0.221529     -0.195424     -0.190195
O      15.31905     13.33778      2.64915         2.771728      0.183541      0.218458
O       0.05933     13.46261     15.80345         0.285362     -0.328019     -0.310453
O       3.89227      2.02687      7.21633        -1.953750     -0.493682     -0.538776
O       3.76123     13.62390      7.14760         0.642924     -0.727874      0.063347
O      15.30845      1.95519      7.15750         0.496611     -0.214959     -0.168779
O       0.00680     13.54855      7.21839        -0.125327     -0.648631     -0.502102
O       3.84621      2.01287     11.44983         0.210591     -0.501324     -0.224122
O       3.80979     13.48501     11.36972         0.587562     -0.300592      0.107895
O      15.35623      1.79545     11.46658        -1.223031      0.720542     -0.229255
O      15.33518     13.59018     11.52551        -0.103526     -1.015250     -0.548273
O       3.85210      5.80242      2.88435        -0.989173     -0.000793     -0.724941
O       3.86450      5.66808     15.95312        -0.362607      0.052501     -0.690067
O      15.33206      5.74425      2.69369         0.943749      0.141760     -0.145074
O      15.28848      5.75718     15.94212         0.547710      0.018775      0.002679
O       3.82679      5.74208      7.06756        -0.854350      0.358114     -0.114222
O       0.02492      5.72915      7.16640        -0.915245      0.164753     -0.253232
O       3.85164      5.79078     11.45967        -0.574524      0.294091     -0.119810
O      15.27849      5.81981     11.41613         1.046040     -0.123918      0.246062
O       3.87086      9.49265      2.74111        -0.407135      0.452072     -0.099384
O       3.83739      9.48402     15.85847         0.341458      0.348145      0.294475
O       0.08340      9.73951      2.68450         0.485145     -0.016888     -0.209865
O       0.08301      9.59784     15.84492        -0.514975     -0.163302      0.072107
O       3.83545      9.70675      7.08168         0.925096     -0.294755      0.099150
O       0.10434      9.68745      7.15898        -0.620181     -0.401457     -0.624452
O       3.87507      9.55320     11.33024         0.491810     -0.142429      0.446541
O       0.00264      9.49152     11.46955        -0.519327      0.822838     -0.313541
O       7.64318      1.92035      2.72391         0.205392     -0.158442     -0.240976
O       7.61319      1.77057     15.79643         0.459823      0.262933      0.315133
O       7.67941     13.46825      2.80078        -0.911871     -0.249976     -0.118377
O       7.67281     13.43022     15.74976        -0.756963      0.396388     -0.102706
O       7.62865      2.06284      7.07414         0.607090     -0.330668      0.229959
O       7.67532     13.41932      7.28034        -0.075495      0.719718     -0.234397
O       7.66958      2.01722     11.38192        -0.107610     -0.640280      0.046242
O       7.64132     13.42629     11.45861         0.474394      0.053242     -0.460090
O       7.70722      5.72416      2.74957        -0.418027      0.012208     -0.010765
O       7.62207      5.84117     15.81571         0.728554     -0.412449      0.205705
O       7.64677      5.93757      7.04698        -0.572172     -0.842891      0.299113
O       7.72900      5.84316     11.42494         0.299010     -0.282428     -0.087643
O       7.65956      9.54654      2.70433         0.216256      0.370903      0.138155
O       7.63476      9.56270     15.76203         0.612184     -0.234983      0.849176
O       7.69388      9.63854      7.22100        -0.500972     -0.226595     -0.369005
O       7.77610      9.62763     11.49261        -0.533318     -0.245424     -0.421862
O      11.63366      1.89768      2.72841        -1.139810      0.182648      0.215102
O      11.50315      1.96832     15.90028        -0.846828     -0.711821     -0.537059
O      11.48186     13.39874      2.71745         0.232183     -0.146666      0.324894
O      11.55172     13.36313     15.79483        -0.877357      0.037399      0.157041
O      11.48576      1.86514      7.15520        -0.423757      0.742257     -0.628246
O      11.52125     13.48166      7.01402        -1.191365     -0.167210      0.160366
O      11.53797      1.96619     11.59436        -0.584007     -0.512558     -0.687437
O      11.45221     13.54677     11.31216         0.715343     -0.706253      1.084287
O      11.48982      5.73483      2.90301         0.228486     -0.356671     -0.729246
O      11.45795      5.70323     15.93568        -0.081442     -0.031894      0.031829
O      11.58745      5.86493      6.80578         0.267258     -0.469526      0.536922
O      11.55358      5.71850     11.40873        -1.244792      0.260838      0.385445
O      11.57561      9.63077      2.74938        -0.622352     -0.189501     -0.022695
O      11.46547      9.60143     15.78890         0.631306      0.280925     -0.172935
O      11.54171      9.58345      7.17794         0.248913      0.462596     -0.861222
O      11.55070      9.68148     11.53727        -0.242242      0.001715     -0.309995
O       1.98426      3.81541      2.72791        -0.366094      0.720058     -0.008090
O       1.78198      3.87204     15.93654         0.666686     -0.950354     -0.397693
O       1.99275     15.34507      2.83830        -0.597043     -1.027141     -0.554666
O       2.01178      0.03422     15.89135        -1.024334     -0.915790     -0.890174
O      13.51145      3.88210      2.70938        -0.366178     -1.307309      0.080385
O      13.32413      3.77139     15.90989         0.866891      0.623865      0.144652
O      13.43208     15.24277      2.77094         0.522056      1.508194     -0.213536
O      13.51710     15.30941     15.87739        -0.680258      0.484824     -0.378163
O       1.82767      3.89074      7.14332         0.476069     -0.697528     -0.239349
O       1.84438      0.04157      7.15711         0.338849      0.659081      0.020667
O      13.45448      3.77525      7.16239        -0.265800      1.139985     -0.915288
O      13.38181      0.02234      7.13048         0.433249     -0.304691      0.279877
O       1.89185      3.90084     11.39370        -0.384287     -0.189355      0.414504
O       2.01798      0.06612     11.55430        -0.425027     -0.584819     -0.353581
O      13.39387      3.87734     11.42107         0.513914     -1.690391      0.198182
O      13.30221      0.02301     11.46790         0.489940     -0.162954      0.054161
O       1.85925      7.68995      2.70682         0.210235     -0.159946     -0.363855
O       1.97290      7.67662     15.87579        -0.334064     -0.626114     -0.101962
O      13.53211      7.81452      2.76329        -0.263807     -2.188649      0.123601
O      13.38890      7.70298     16.06720         0.258539     -0.244374     -0.920741
O       1.97549      7.74513      6.95769        -0.122632     -0.437905      0.446623
O      13.58132      7.64792      7.02485        -0.283861      0.265806     -0.335346
O       1.87805      7.73296     11.49269         0.433837     -1.359670     -0.178599
O      13.37543      7.68067     11.50445        -0.181928      0.371941     -0.326130
O       2.16249     11.55850      2.68693        -0.982202     -0.804458     -0.331945
O       2.12870     11.51085     15.71394        -0.674423      1.167833      0.120304
O      13.39585     11.51700      2.78902         0.403192      0.353337      0.222341
O      13.47255     11.41537     15.83302         0.128598      0.898101      0.138115
O       2.02180     11.57208      7.09623        -0.403829      0.414134      0.020869
O      13.53857     11.53031      7.09145        -0.369195     -0.255555      0.010660
O       1.90258     11.45152     11.44128        -0.319078      0.926733     -0.059476
O      13.51030     11.53476     11.61669        -0.508711     -0.176874     -0.717337
O       5.68655      3.81908      2.59033         0.174523     -0.487427      0.703178
O       5.88005      3.77643     15.89224        -0.382991     -0.004101     -0.133864
O       5.83568     15.35497      2.91830        -0.966161     -0.165686     -0.718426
O       5.74476      0.01273     15.71496         0.018341     -0.824189     -0.061741
O       5.65783      3.96334      7.19985         0.779163     -0.386189     -0.423617
O       5.74899      0.06606      7.09985         0.328638     -0.459525      0.423325
O       5.76353      3.89061     11.38608         0.247570     -0.222836     -0.066554
O       5.75981      0.00273     11.43865         0.128253      0.213750     -0.282132
O       5.81949      7.70901      2.78855        -0.342005     -0.311505     -0.072305
O       5.78350      7.61512     15.93070        -0.539579      0.003522     -0.214052
O       5.68003      7.71334      6.93358        -0.093612      0.039197      0.187886
O       5.82836      7.68287     11.54861        -0.190491      0.388461      0.122293
O       5.78215     11.55206      2.77781        -0.202076     -0.355223     -0.079490
O       5.71192     11.48016     15.59424         0.115942      0.840340      0.968906
O       5.81187     11.57464      7.24464        -0.462233     -0.741383     -0.140410
O       5.70338     11.47077     11.23333         0.502526      0.341918      0.217251
O       9.58624      3.75531      2.55889         0.420559      0.758854      0.728486
O       9.44727      3.78020     15.75395         0.027654      0.173021      0.489255
O       9.64314     15.30313      2.81127        -0.268374      1.244347     -0.261966
O       9.66160     15.35040     15.72314        -0.171535     -0.569214      0.184320
O       9.56734      3.89713      7.18912         0.093245     -0.977249     -0.390770
O       9.51048      0.05890      7.14851        -0.078611     -0.128676     -0.480191
O       9.60314      3.83631     11.27853         0.091021      0.693997      0.461338
O       9.54531     15.34483     11.50328         0.103319      0.090424     -0.124725
O       9.60168      7.71893      2.81202         0.173504     -1.129695     -0.250607
O       9.65630      7.61333     15.89269        -0.751349      1.472356     -0.401723
O       9.58149      7.74812      7.10770         0.260413     -0.529298     -0.057891
O       9.69525      7.68579     11.39860        -0.010498      0.156986      0.276134
O       9.56063     11.44701      2.68245        -0.101014      0.740699      0.447842
O       9.41864     11.51830     15.91697         1.081510     -0.089369     -0.508982
O       9.46851     11.53130      7.21554         1.327281      0.303939     -0.704319
O       9.60898     11.53987     11.44244         0.137473     -0.109778      0.012543
