  # total energy = -7879.59197496 
CRSYTAL
PRIMVEC
    15.6000000000000000    0.0000000000000000    0.0000000000000000
     0.0000000000000000   15.6000000000000000    0.0000000000000000
     0.0000000000000000    0.0000000000000000    17.640000000000000
PRESSURE
-3.74135 -3.99419 -4.25667 0.051695 -0.249238 0.021105
PRIMCOORD
320 1
Pb       3.74815      3.75058      4.38075         0.516110      0.725465      0.495530
Pb       3.90261      3.93217     17.58067         0.445311      0.090524      0.165877
Pb       3.86819     15.49318      4.29439        -0.263205      0.431609      1.202611
Pb       3.76557     15.57570     17.51097         0.644298     -0.455986      1.487664
Pb       0.04727      3.90220      4.34260        -0.047968     -0.169716      0.536084
Pb      15.59491      3.99823     17.62657         0.061950     -0.399459      0.200219
Pb      15.52956     15.51612      4.25992         0.211482     -0.088151      1.184387
Pb      15.46679      0.02659     17.53580        -0.135603     -0.017228      0.796014
Pb       3.79617      3.97393      8.77440         0.294086      0.099413      0.673175
Pb       3.81877      0.05800      8.69619         0.713142     -0.364659      0.782585
Pb      15.54628      3.95669      8.69919         0.575647     -0.292696      0.993033
Pb      15.59916     15.58741      8.73565        -0.201784     -0.142578     -0.346386
Pb       3.93491      3.59697     13.22466         0.035177      0.761348      0.436669
Pb       3.79131     15.48300     13.12297         0.522972      0.376887      0.512657
Pb       0.01614      3.77003     13.15651        -0.377038      0.630005      0.698690
Pb      15.58148      0.13904     13.09789        -0.396269     -0.884879      1.029872
Pb       3.88593      7.79350      4.39968         0.049937      0.264235      0.466544
Pb       3.94846      7.82176     17.58245         0.479076     -0.303587      0.729969
Pb       0.07489      7.98513      4.41867        -0.129064     -0.584427     -0.106420
Pb       0.07412      7.87676     17.48632        -0.137324     -0.645239      0.749221
Pb       3.93869      7.93122      8.83970        -0.905865     -0.597683      0.210403
Pb      15.53178      7.81322      8.88143         0.216278      0.384848     -0.288213
Pb       3.93479      7.75283     13.09800        -0.555476      0.199879      0.839008
Pb       0.10619      7.89264     13.17413        -0.209287     -0.435980      0.331499
Pb       3.91315     11.65738      4.35750         0.286947     -0.595955      0.444717
Pb       3.94696     11.63307     17.55670        -0.405523      0.442024      0.776462
Pb      15.52245     11.55574      4.28358        -0.015724      0.498263      0.267752
Pb      15.54045     11.64571     17.46855         0.290398      0.199989      0.359756
Pb       3.83743     11.59443      8.75004         0.101989      0.195945      0.614520
Pb      15.49018     11.81690      8.77203         0.218872     -0.242073      0.055693
Pb       3.81946     11.81525     13.11811         0.063314     -0.276478      0.516560
Pb      15.48359     11.64118     13.12367         0.226179      0.398276      0.837137
Pb       7.87957      3.64463      4.54423        -0.506977      0.080419     -0.510632
Pb       7.77104      3.82177     17.54275        -0.305556      0.825055      0.858564
Pb       7.67166     15.41783      4.32835        -0.263650      0.789771      0.807128
Pb       7.73519     15.59968     17.60433        -0.171301      0.127663      0.818765
Pb       7.62388      3.93518      8.73598        -0.054324     -0.168862      0.299866
Pb       7.83514     15.57684      8.69201        -0.750474      0.102072      0.573227
Pb       8.08846      4.00033     13.06804        -1.402976     -0.262906      1.249321
Pb       7.81033      0.04299     13.21126        -0.155804      0.493538      0.173081
Pb       7.97709      7.72199      4.36483        -0.691946      0.279965      0.372061
Pb       7.83011      7.90798      0.02866        -0.253970     -0.352601     -0.198651
Pb       7.70242      7.84180      8.69641         0.598735     -0.176178      1.070803
Pb       7.73554      7.94649     13.09440         0.334368     -0.409539      0.219592
Pb       7.88484     11.72360      4.41235        -0.702970     -0.309915      0.148428
Pb       7.76852     11.73271      0.02058         0.142295     -0.551760      0.147946
Pb       7.86006     11.73578      8.96188        -0.232498      0.112635     -0.658618
Pb       7.79194     11.81614     13.18458         0.013154     -0.541761      0.090133
Pb      11.67114      3.88896      4.44122         0.079867     -0.708430     -0.458329
Pb      11.86109      3.82265     17.62423        -0.575372     -0.024438      0.194979
Pb      11.48475     15.36002      4.41969         0.965065      0.749724      0.402941
Pb      11.41609     15.45673     17.61664         0.682109      0.341320      0.486674
Pb      11.51516      3.93356      8.78707         0.590969     -0.144575      0.306141
Pb      11.85489      0.08071      8.67491        -0.368253     -0.516520      0.489637
Pb      11.82153      3.94677     13.17182         0.096453     -0.150779      0.862232
Pb      11.68438     15.53643     13.14095         0.049184      0.298032      0.547636
Pb      11.79302      7.61310      4.22541        -0.632225      1.147318      1.032716
Pb      11.68067      7.68248     17.47898        -0.050413      0.387847      0.234068
Pb      11.55117      7.80722      8.68606         0.269544      0.068663      0.271858
Pb      11.75787      7.69083     13.22248        -0.093105      0.415898      0.096682
Pb      11.66707     11.64406      4.21638         0.379128     -0.163548      0.370037
Pb      11.84731     11.54372     17.44072        -0.713446      0.090454      0.278552
Pb      11.76318     11.60528      8.58256        -0.281167      0.329295      0.288237
Pb      11.59403     11.61447     12.97601        -0.101439      0.218183      0.714627
Ti       1.85675      1.84423      2.35290        -0.077857      0.307207     -0.648316
Ti       1.91916      1.89136     15.69900        -0.233941      0.869662      0.852530
Ti       1.95851     13.53590      2.41483        -1.148879      0.146039     -1.301522
Ti       1.83191     13.63460     15.66349         0.025082     -0.071863     -0.787237
Ti      13.54498      1.91459      2.48182        -0.113551     -0.277100     -0.157751
Ti      13.59452      1.81892     15.52908         0.240747      1.358159     -0.518644
Ti      13.65480     13.64031      2.34753        -0.296464      0.217637     -0.621214
Ti      13.54295     13.66757     15.56844         0.226483     -0.022465     -1.158551
Ti       1.93623      1.92624      6.82241         0.162727      0.562355      0.385635
Ti       1.99579     13.58905      6.75394        -1.386599      0.487332     -0.729799
Ti      13.65650      2.07196      6.80984        -0.258976     -1.278745     -1.705854
Ti      13.62080     13.60972      6.75291         0.105749     -0.414314     -0.991436
Ti       1.87599      1.95496     11.16196         0.850804      0.435742     -0.023183
Ti       1.83051     13.72341     11.29960         0.584312     -1.461247     -1.937799
Ti      13.58051      1.88966     11.15964         0.079705      0.710406     -1.038596
Ti      13.63476     13.66722     11.25800        -0.377801     -0.708992     -0.046475
Ti       1.97192      5.84411      2.53695        -0.083770     -0.002475     -0.278399
Ti       2.02648      5.85084     15.66876        -0.563401      0.047456     -1.826944
Ti      13.66242      5.84981      2.55256         0.729021     -0.216588     -0.117806
Ti      13.72290      5.80969     15.62835        -0.350669     -0.327551     -1.825690
Ti       1.87432      5.85521      6.90647         0.808316      0.137254     -0.642237
Ti      13.59387      5.81548      6.79085         0.418463      1.135801     -0.984272
Ti       1.88482      5.80705     11.36017         0.876326     -0.135624     -1.346967
Ti      13.67861      5.81438     11.19531        -0.376740      0.511145      0.733714
Ti       1.95390      9.74450      2.27228         0.547660     -0.374994     -0.295183
Ti       2.02605      9.74712     15.60032        -0.413829     -0.175360     -0.971150
Ti      13.60426      9.68271      2.08589         0.509242      0.044314      0.302538
Ti      13.72779      9.66363     15.44181        -0.924178     -0.343719      0.031134
Ti       1.84041      9.77896      6.89529        -0.176145     -0.356043     -0.690439
Ti      13.65604      9.59920      6.78307        -0.036226      1.359746      1.446294
Ti       1.90804      9.83589     11.23345         0.178096     -0.039580     -0.184111
Ti      13.59693      9.74960     11.17117         0.186407     -0.571178     -0.200096
Ti       5.74875      1.97003      2.48488         1.260763      0.092031     -1.306300
Ti       5.85876      1.85810     15.65202        -0.386276      0.869168     -0.349860
Ti       5.70486     13.62670      2.39404         1.472482     -0.633195     -1.420921
Ti       5.78394     13.59660     15.63990        -0.107199      0.397140     -0.293307
Ti       5.79568      2.00866      6.82665         0.005077     -1.092732     -0.811546
Ti       5.76611     13.56211      6.93795         0.644229      0.658257     -1.636115
Ti       5.85850      1.89566     11.20198        -0.209020      0.417292     -0.905592
Ti       5.87776     13.66623     11.23355        -0.545998      0.412109     -1.911940
Ti       5.88755      5.81320      2.68903        -0.737375     -0.268376     -1.625683
Ti       5.85320      5.89793     15.53808         0.644096     -0.394051     -0.825932
Ti       5.82915      5.95040      6.82375        -0.989728     -1.071203     -0.637895
Ti       5.72925      5.76118     11.34991         0.288592     -0.395695     -0.246563
Ti       5.94123      9.67916      2.49726        -1.028010      0.073301     -0.477179
Ti       5.83321      9.79340     15.54634         0.972187     -0.468626     -0.275861
Ti       5.84665      9.68552      6.81774        -1.022757      1.856139     -1.259977
Ti       5.76293      9.81961     11.22069         0.354054      0.008846     -0.623058
Ti       9.69696      1.85490      2.47662         0.138443      0.408489     -0.957471
Ti       9.74051      1.94103     15.64820         0.069883      0.262954     -1.658944
Ti       9.68913     13.61227      2.41464         0.109409     -0.553271     -1.119071
Ti       9.62900     13.55300     15.61783         0.791695      0.027767     -0.317129
Ti       9.74714      1.85690      6.83060        -0.619625     -0.085285     -1.313216
Ti       9.67799     13.64740      6.86047         0.873549     -0.688475     -0.189827
Ti       9.77316      1.99825     11.15796        -0.079360     -0.629336      0.450441
Ti       9.73109     13.79199     11.19407         0.093525     -0.966043     -0.712048
Ti       9.69380      5.77987      2.47137        -0.228754     -0.716252     -1.588688
Ti       9.72633      5.80456     15.69277        -0.126883      0.250257     -0.295193
Ti       9.73160      5.79162      6.78290        -0.344565      0.181441     -0.317749
Ti       9.80673      5.87638     11.19396        -0.145125      0.846088     -0.306617
Ti       9.78258      9.66234      2.34871        -0.116973      0.234159     -0.717025
Ti       9.72541      9.76016     15.51877        -0.001785     -0.683483      0.191854
Ti       9.59966      9.72195      6.75273         1.310081      0.769127     -1.390975
Ti       9.71163      9.75807     11.07930        -0.068024      0.065937      0.150158
O       1.73693      1.90480      0.58467         0.500796      0.020507      0.935281
O       2.06575      1.89741     13.98042        -0.479653     -0.355435     -0.715302
O       1.99085     13.45116      0.62937        -0.160807      0.301088      1.132610
O       1.80055     13.67783     13.88607         0.290436      0.342384      0.845692
O      13.58565      1.86854      0.70178        -0.136778     -0.030807      0.845844
O      13.60682      2.05401     13.71532         0.172976     -0.751693      1.411803
O      13.57083     13.88591      0.56283         0.101519     -0.773191      1.349204
O      13.54351     13.77285     13.76815         0.043698     -0.590445      1.414859
O       2.02600      2.23675      5.12663        -0.415931     -1.091017     -0.128624
O       1.84800     13.64445      4.98652         0.589443     -0.391032      0.718316
O      13.50148      2.07784      5.01653         0.613163     -0.022988      1.841339
O      13.59051     13.44415      4.98673         0.024385      0.439000      0.712877
O       1.87961      2.04810      9.44392         0.029158     -0.355871     -0.316623
O       1.84194     13.50134      9.52526        -0.217369      0.624380      1.084185
O      13.69564      1.95531      9.34305        -0.443608     -0.145519      1.645782
O      13.64862     13.60967      9.51753         0.059525      0.138370     -0.222478
O       1.86808      5.84921      0.78496         0.336425     -0.028244     -0.092957
O       1.89992      6.03652     13.89480         0.427118     -0.488695      0.889420
O      13.82045      5.82986      0.84368        -0.273594     -0.273679     -1.003152
O      13.62582      5.70045     13.81610         0.159731      0.258922      1.551805
O       1.92074      5.68261      5.16125        -0.024354      0.632120      0.601668
O      13.53773      6.03047      4.98273        -0.163150     -0.842162      1.210217
O       1.89653      5.66398      9.57350        -0.276098      0.616398      0.954501
O      13.55806      5.77963      9.45479         0.282508      0.194372      0.318439
O       2.02876      9.69601      0.46590        -0.284041      0.204644      1.503227
O       2.06056      9.71364     13.81596        -0.390114      0.025345      1.208652
O      13.71023      9.57785      0.31323        -0.475689      0.437305      0.903455
O      13.66948      9.59533     13.65356        -0.005684      0.536016      1.286720
O       1.69588      9.81429      5.11350         0.224426     -0.317458      0.563097
O      13.92165      9.73578      5.11356        -0.452836     -0.320446     -1.345836
O       1.87090      9.96718      9.46106         0.197275     -0.374861      0.834249
O      13.71680      9.84260      9.40133        -0.511531     -0.420588      0.683967
O       5.95922      1.85258      0.68399        -0.612971      0.440618      1.289232
O       5.89354      1.85034     13.86741        -0.304058     -0.071593      1.485169
O       5.68065     13.60516      0.56920         0.299670     -0.062173      1.759785
O       5.81153     13.54744     13.85671         0.019750      0.290829      1.055189
O       5.85474      2.02848      5.03268        -0.366054     -0.266232      1.315866
O       5.79125     13.59163      5.10346        -0.166728     -0.086868      1.459785
O       5.75327      1.97831      9.39331         0.585525     -0.048358      1.682792
O       5.96307     13.75489      9.40235        -0.122132     -0.503765      1.631041
O       5.68314      5.85960      0.93477         0.320220     -0.007079      0.397148
O       5.85720      5.87907     13.73733        -0.033014      0.108054      1.193959
O       5.87358      5.99242      5.07728        -0.166195     -0.201784      0.914563
O       5.71783      5.60020      9.58320         0.532823      0.641596      0.679342
O       5.81648      9.62140      0.70694         0.366783      0.297592      0.812015
O       5.94093      9.90996     13.76932        -0.419544     -0.458374      1.224138
O       5.73973      9.70335      5.03300         0.459684      0.155764      1.227348
O       5.75368      9.84903      9.42301         0.248894     -0.351310      1.029896
O       9.84770      1.79709      0.67372        -0.523557      0.160840      0.935166
O       9.64096      1.93813     13.81901         0.177533      0.004805      2.069406
O       9.75991     13.55053      0.62390        -0.276707      0.328971      0.938246
O       9.64441     13.51395     13.85184         0.056665      0.403258      0.652754
O       9.53525      1.76729      5.03303         0.825017      0.421555      1.423207
O       9.77071     13.66751      5.08634        -0.597349     -0.414000     -0.017756
O       9.80058      1.93148      9.41193        -0.128113      0.375108      0.147541
O       9.76154     13.74060      9.42917        -0.452357     -0.077517      0.653510
O       9.72492      5.79636      0.70822         0.113147     -0.055807      0.338282
O       9.87321      5.88744     13.94403        -0.227954     -0.168034      0.112077
O       9.72109      5.81559      5.02229         0.115876     -0.039284      0.669130
O      10.00118      5.78324      9.41548        -0.661366      0.287301      0.621950
O       9.68760      9.67576      0.55222         0.124894      0.191207      1.600902
O       9.64347      9.70165     13.73815         0.145938      0.350218      1.243471
O       9.54694      9.76631      4.90329         0.424466     -0.197670      2.252576
O       9.76088      9.82897      9.27259        -0.288432     -0.381248      1.374820
O       3.82188      1.87025      2.86999        -0.417952      0.217866     -0.539429
O       3.87388      1.84596     16.23564         0.455373      0.439138     -1.111766
O       3.88557     13.56526      2.92458        -0.720605     -0.041376     -0.529529
O       3.83223     13.72800     16.05643         0.363889     -0.669606     -0.681651
O      15.59476      1.91749      2.89264        -0.083635     -0.196196     -0.324931
O      15.50299      1.88959     16.07072         0.371062      0.276561     -0.712852
O      15.55540     13.65153      2.86787        -0.163593     -0.562092     -0.903405
O      15.46873     13.63309     16.12110         0.562177     -0.050694     -0.486602
O       3.87271      1.96898      7.35108        -0.126557      0.346727     -0.793427
O       3.85583     13.49499      7.29550        -0.105286      0.330456     -0.323937
O       0.00410      1.95274      7.14814        -0.120787      0.138519      0.111251
O      15.58811     13.79377      7.21254         0.038192     -0.758547     -0.071078
O       3.82872      1.86011     11.68081         0.538073      0.065332     -0.449443
O       3.85707     13.69718     11.57680        -0.114403      0.003177      0.250753
O      15.52195      1.90652     11.57450         0.387256      0.146085     -0.084073
O      15.52377     13.63740     11.75245        -0.092783      0.349569     -0.448255
O       3.83145      5.86151      3.09140         0.006665     -0.234370     -0.570601
O       3.96279      5.92033     16.10926        -0.315693     -0.201217     -0.251957
O      15.52891      5.92418      3.07445         0.369716     -0.424973     -0.647002
O       0.09538      5.82333     16.07829        -0.707587     -0.143096      0.003487
O       3.88824      6.01895      7.38699         0.001194     -0.546380     -0.583098
O      15.53570      5.82033      7.15039        -0.041314      0.249980      0.386286
O       3.82584      5.74206     11.77649         0.576502      0.271691     -0.335501
O       0.03990      5.85080     11.83304        -0.824353     -0.062114     -0.918150
O       3.85443      9.82873      2.80677        -0.535055     -0.524973     -0.157883
O       3.92648      9.75201     16.04867         0.217194      0.054256     -0.597182
O      15.53488      9.67777      2.59454         0.344287     -0.093624      0.142039
O       0.02027      9.70028     15.97395         0.199056      0.008028     -0.677293
O       3.86954      9.67990      7.22214        -0.327184      0.434929      0.047738
O      15.52869      9.70090      7.37868         0.338452     -0.142412     -0.235426
O       3.85295      9.85067     11.65507         0.184322     -0.093325     -0.408256
O      15.59321      9.77912     11.62756         0.088169     -0.148006     -0.253678
O       7.72869      1.86186      2.88625         0.114457     -0.087464     -0.086497
O       7.76871      1.96726     16.18784         0.143281     -0.275267     -0.890030
O       7.67494     13.61968      2.83258         0.532949     -0.025319     -0.505427
O       7.77314     13.49688     16.09124        -0.115697      0.342885     -0.358457
O       7.77460      1.85481      7.15182        -0.165642      0.544651      0.472231
O       7.75344     13.68128      7.29811         0.344260     -0.147691     -0.299429
O       7.79207      2.00266     11.63025         0.372524     -0.216102     -0.608483
O       7.77287     13.69813     11.77223        -0.007279      0.174449     -0.928583
O       7.83149      5.70747      2.89678        -0.213368      0.675507      0.235316
O       7.77439      5.77768     16.03292        -0.018883     -0.029400     -0.168807
O       7.74948      5.90148      7.23937         0.306756     -0.169169      0.217477
O       7.92036      5.88633     11.63356        -0.246847     -0.453845     -0.502077
O       7.79791      9.61285      2.87360         0.213007      0.502111     -0.646579
O       7.77840      9.79503     16.08407         0.016449      0.125909     -0.437389
O       7.76042      9.74361      7.23435        -0.240888     -0.199881     -0.036436
O       7.75620      9.78880     11.60053        -0.159849      0.006832     -0.697645
O      11.64010      1.79440      2.94061        -0.190710      0.386399     -0.318387
O      11.67995      1.91265     15.96232        -0.184842     -0.107583      0.035181
O      11.60876     13.61149      2.77358         0.095106     -0.124096      0.128281
O      11.65767     13.67021     16.03424        -0.053520     -0.400477     -0.324974
O      11.68908      1.93196      7.15006        -0.071321      0.298743      0.102364
O      11.67186     13.66280      7.12707         0.441667     -0.168534      0.367940
O      11.67869      1.82690     11.61058         0.473669      0.667858     -0.482016
O      11.63897     13.63950     11.69239        -0.212292      0.094611     -0.443249
O      11.60763      5.76322      2.89600         0.670975     -0.209568     -0.104510
O      11.78816      5.78876     16.07697        -0.239937      0.250466      0.136944
O      11.63598      5.87474      7.20761         0.103522     -0.131501     -0.300144
O      11.74435      5.91090     11.74553         0.007144     -0.378864     -0.720163
O      11.74354      9.68336      2.62581        -1.094888      0.521339     -0.015245
O      11.70655      9.63827     15.87788        -0.122016      0.150523     -0.071771
O      11.65295      9.82817      7.03622         0.012039     -0.851876      0.157681
O      11.63239      9.75578     11.51189        -0.158394      0.209648     -0.271027
O       1.92338      3.87266      2.86817        -0.255977     -0.305681     -0.425967
O       2.04934      3.86903     15.93481        -0.218496      0.186548      0.540589
O       1.86179     15.47748      2.76353         0.535868      0.781856     -0.172632
O       1.90311     15.57103     16.14805        -0.535130     -0.302917     -0.578385
O      13.59101      3.80940      2.88014        -0.182169      0.571806     -0.135107
O      13.66042      3.87819     16.19753         0.293991     -0.039833     -0.708346
O      13.60410     15.48965      3.05772        -0.267911      0.326644     -1.196010
O      13.64347     15.57875     15.87180        -0.217541      0.080361     -0.001573
O       1.95207      3.93553      7.32329        -0.229408      0.011485     -0.239873
O       2.04851     15.55526      7.19571        -0.465640      0.464266     -0.263535
O      13.65019      3.97774      7.34322        -0.666205     -0.648736     -1.107178
O      13.68531      0.00360      7.28157        -0.180633      0.317809     -0.612285
O       1.93836      3.82981     11.73692        -0.250122     -0.154968     -0.105779
O       1.89465      0.03106     11.66234        -0.376924      0.016944     -0.256797
O      13.66241      3.88057     11.66809        -0.081465     -0.099663     -0.790693
O      13.59837     15.54887     11.58526         0.116967      0.888506     -0.079667
O       1.98283      7.76240      2.97636        -0.436994      1.189064     -0.780641
O       2.00300      7.76867     16.13097        -0.012845      0.634960     -0.532303
O      13.48527      7.82987      2.73677         0.726431     -0.262283     -0.234499
O      13.69816      7.72508     15.90243         0.102433      0.182460     -0.065307
O       1.87604      7.86259      7.44587        -0.205344     -0.533159     -0.433052
O      13.66756      7.73252      7.31064        -0.432516     -0.172618     -0.233248
O       2.01051      7.87031     11.67828        -0.392706     -0.300550     -0.704702
O      13.59623      7.80866     11.63825         0.532999     -0.353173     -0.664713
O       1.85220     11.63748      2.79733         0.228626     -0.330550     -0.206475
O       1.86386     11.69617     15.97414         0.324021     -0.296821      0.015674
O      13.55675     11.64290      2.58635         0.257988      0.036423     -0.139137
O      13.68390     11.59374     15.97813        -0.362657      0.534416     -0.661818
O       1.81030     11.69922      7.17499         0.349676      0.010956      0.162764
O      13.67823     11.66440      7.13203        -0.032230      0.545297      0.354023
O       1.85123     11.80902     11.84093         0.204854     -0.819207     -0.771607
O      13.61803     11.63678     11.64997        -0.179789      0.583802     -0.194716
O       5.79214      3.88811      2.96518         0.015545     -0.946873     -0.257354
O       5.74366      3.94557     16.07103         0.241472     -0.715362     -0.200569
O       5.70084     15.59999      2.94787         0.452333     -0.838746     -0.771680
O       5.91896     15.56519     16.13882        -0.226942     -0.176385     -0.841032
O       5.81020      3.95266      7.26518         0.162874     -0.065233     -0.450961
O       5.66605     15.58376      7.21907         0.444799      0.098010     -0.080979
O       5.87123      3.83036     11.79041        -0.250287     -0.061592     -0.629871
O       5.83696     15.56487     11.71226         0.152014      0.620856     -0.334139
O       5.83331      7.76687      3.05011         0.081306      0.570478     -0.532453
O       5.93581      7.82233     16.03857        -0.440411      0.293317     -0.512441
O       5.79533      7.84235      7.38908         0.495232     -0.362893     -0.442996
O       5.78655      7.79367     11.64191         0.063165      0.181620     -0.604246
O       5.85767     11.67042      2.86619        -0.137319      0.141366     -0.239617
O       5.83018     11.71733     16.13963        -0.165054     -0.482309     -0.556465
O       5.82230     11.62896      7.29528         0.224291      0.227156     -0.148604
O       5.70457     11.74849     11.58727         0.850938      0.104248     -0.191463
O       9.64183      3.75430      2.94012         0.734659      0.121111     -0.233685
O       9.79755      3.89502     16.11721        -0.267671     -0.845335     -0.259327
O       9.65241     15.48929      2.92602         0.042065     -0.098043     -0.668057
O       9.59112     15.56351     16.08494         0.358630     -0.132598     -0.597381
O       9.73207      3.86340      7.24892        -0.297009      0.326331     -0.567927
O       9.80758     15.54949      7.29830        -0.323034      0.692496     -0.377335
O       9.94683      3.95374     11.72406        -0.535007     -0.420030     -1.337694
O       9.74470      0.09753     11.65848        -0.413365     -0.806835     -0.235807
O       9.72854      7.76506      2.74448         0.109202     -0.157331      0.098266
O       9.67142      7.74976     16.17409         0.408974      0.287186     -0.742971
O       9.63905      7.81079      7.24635         0.305552     -0.228146     -0.410835
O       9.70837      7.84846     11.60422         0.377517     -0.068521     -0.656838
O       9.66476     11.63321      2.90446         0.173932      0.367230     -0.781254
O       9.81775     11.63379     16.09742        -0.266032      0.146961     -0.616674
O       9.67524     11.69793      7.24756        -0.251351     -0.005107     -0.260859
O       9.57241     11.78232     11.55455         0.775078     -0.610904     -0.319948
