  # total energy = -7878.81792520 
CRSYTAL
PRIMVEC
    15.6000000000000000    0.0000000000000000    0.0000000000000000
     0.0000000000000000   15.6000000000000000    0.0000000000000000
     0.0000000000000000    0.0000000000000000    17.640000000000000
PRESSURE
-4.9594 -5.15806 -5.51414 0.168527 -0.598586 0.005531
PRIMCOORD
320 1
Pb       3.92352      3.91188      4.27505         0.155338     -0.016884      0.290162
Pb       3.80405      3.71926     17.56761         0.369560      0.404538     -0.230865
Pb       4.02465      0.08761      4.40764        -0.162701     -0.791662     -0.158921
Pb       4.00144     15.54171     17.50372        -0.750515      0.554982      0.603310
Pb      15.59764      3.86163      4.30695        -0.741052      0.221591      0.044612
Pb      15.51405      3.77341     17.56169         0.863198      0.015239      0.175246
Pb       0.00441      0.00885      4.31966        -0.103857     -0.014801      0.239666
Pb       0.15548     15.51956     17.61772        -0.019445      0.357969     -0.455453
Pb       3.91793      3.82564      8.74324        -0.071881     -0.074441     -0.285007
Pb       3.86042     15.59138      8.75417         0.274751      0.017255      0.267007
Pb       0.04514      3.78872      8.69825         0.054125      0.335120      0.470602
Pb       0.06850      0.00379      8.93203        -0.925764      0.067341     -0.064049
Pb       3.71942      4.07776     13.09360         0.681477     -0.272724      0.364645
Pb       3.89085      0.06131     13.20545        -0.296205     -0.090191     -0.267591
Pb      15.53210      3.82133     13.24282         0.350726      0.457671     -0.014468
Pb      15.59991      0.00124     13.16118        -0.283643     -0.382739      0.000399
Pb       3.83267      7.80682      4.17420         0.517979     -0.292387      0.427853
Pb       3.76379      7.81161     17.56606         0.278371     -0.417528      0.412018
Pb      15.50068      7.69871      4.42862         0.147636     -0.531685     -0.200084
Pb      15.43717      7.77375      0.00912         0.643293     -0.177134      0.302447
Pb       3.81216      7.76189      8.76080         0.482518      0.091869      0.056076
Pb       0.06522      7.80788      8.63099         0.357703     -0.502672      0.907579
Pb       3.86207      7.91088     13.17546         0.329406     -1.079979      0.210961
Pb      15.41082      7.82454     13.18788         0.382316     -0.141424     -0.168609
Pb       3.90212     11.60668      4.30433         0.061451      0.709163      0.283425
Pb       3.90374     11.65105     17.54360         0.077210     -0.254396      0.120168
Pb       0.00488     11.59741      4.41320         0.174974      0.798296      0.292159
Pb       0.00120     11.55448      0.11057        -0.008310      0.309472     -0.304998
Pb       3.91233     11.71754      8.64759        -0.444418     -0.041680      0.669530
Pb       0.03847     11.54254      8.78934         0.115417      0.092920     -0.317831
Pb       3.93341     11.54703     13.23167         0.037431      0.637483     -0.155033
Pb       0.13070     11.60227     13.25322        -0.766232      0.518815     -0.262106
Pb       7.81192      4.02165      4.30279        -0.069076     -0.120234     -0.049869
Pb       7.86434      3.80180     17.51216        -1.058774      0.661278      0.545615
Pb       7.99843      0.00290      4.35539        -1.337619     -0.317863      0.260692
Pb       7.86485     15.40703     17.61673        -0.158358      0.817287      0.293009
Pb       8.02594      3.89772      8.67922        -0.859437      0.187218      0.514836
Pb       7.74811     15.54438      8.66414         0.043665     -0.111511      0.323452
Pb       7.61461      3.81940     13.07710         0.091505      0.226144      0.235015
Pb       7.71900     15.48735     13.17215         0.264268      0.706921      0.241650
Pb       7.66444      7.82976      4.33832        -0.024251     -0.054394     -0.529611
Pb       7.81027      7.77501     17.48985        -0.077893     -0.262966      1.056515
Pb       7.89306      7.81161      8.75580        -1.001237     -0.194333      0.266930
Pb       7.86668      7.67798     13.17464        -0.846581     -0.176404      0.061069
Pb       7.72572     11.67327      4.33377        -0.063522      0.177184     -0.212301
Pb       7.77022     11.74021     17.60512        -0.035215     -0.497278      0.688756
Pb       7.75552     11.62877      8.78473        -0.538284      0.217314     -0.085506
Pb       7.77547     11.51464     13.21732        -0.249781      0.518832     -0.001543
Pb      11.59306      3.92326      4.32536         0.469646      0.390781     -0.369274
Pb      11.65501      3.94864     17.50104        -0.387168      0.115563      0.574468
Pb      11.79243      0.05039      4.36268        -0.045060      0.229874     -0.047122
Pb      11.81854      0.03933     17.51741        -0.837290     -0.103423      0.490290
Pb      11.73709      3.89735      8.76633        -0.666816      0.404012      0.281487
Pb      11.57329     15.53273      8.81907         0.334161      0.306313      0.143986
Pb      11.59380      3.87342     13.20889         0.135072     -0.266238     -0.433748
Pb      11.74057      0.02794     13.22170        -0.041187     -0.235208      0.195675
Pb      11.65252      7.86141      4.36970        -0.350956     -0.570720      0.067498
Pb      11.83057      7.88926     17.61465        -1.002477     -0.500923      0.266902
Pb      11.82392      7.76428      8.77831        -0.765751     -0.003876     -0.047101
Pb      11.66369      7.87215     13.20868         0.303698     -0.278719     -0.321457
Pb      11.74001     11.78602      4.54492        -0.305989     -0.180499     -0.309632
Pb      11.59656     11.79906      0.10347        -0.105419     -0.365875     -0.275789
Pb      11.57321     11.75841      8.79092         0.357186     -0.229180     -0.215614
Pb      11.81682     11.68656     13.26035         0.160005      0.480862     -0.284336
Ti       1.97138      1.86738      2.41564        -0.433716      0.331278     -1.346179
Ti       1.93119      1.87648     15.48808        -0.132176      0.619703      0.927364
Ti       1.84659     13.64941      2.32232         0.757754      0.118848     -0.011335
Ti       1.96692     13.51060     15.59641        -0.287877      0.636671     -0.096984
Ti      13.60717      1.93918      2.27331         0.326773      0.863407      0.391714
Ti      13.57584      1.99209     15.66929         0.722217     -1.468055     -0.823736
Ti      13.55686     13.62984      2.37360         0.988764      0.049176     -0.669813
Ti      13.78132     13.69485     15.57897        -0.624637      0.135076     -0.253607
Ti       1.84980      1.90603      6.75814         0.255051      0.299530     -0.772357
Ti       1.74731     13.75513      6.89796         1.042678     -1.590223     -1.832521
Ti      13.43421      2.01494      6.76042         1.266736     -1.429162     -1.332823
Ti      13.56018     13.68977      6.92781        -0.058720      0.437500      0.313486
Ti       1.90231      1.95732     11.19328         0.415540     -0.036121     -0.922050
Ti       1.90258     13.56638     11.23485        -0.405599      0.320520     -0.381002
Ti      13.64114      2.01402     11.24205        -0.461942     -0.983942     -0.484109
Ti      13.55331     13.70124     11.23561         0.449225      0.357175     -1.046909
Ti       1.97935      5.77813      2.24778        -1.076290      0.801757      0.868500
Ti       1.88978      5.86239     15.60400         0.358065     -1.652862      0.470562
Ti      13.63472      5.86154      2.34203        -0.230677     -0.657307      0.422350
Ti      13.68634      5.84512     15.65058        -0.809486      0.702506     -0.725997
Ti       1.99401      5.77905      6.69425        -0.249268      0.215065      1.887043
Ti      13.71059      5.79405      6.89343        -0.575465      0.557729     -0.869140
Ti       1.89290      5.87136     11.17280        -0.379198      0.271250     -1.435135
Ti      13.61306      5.91067     11.18866         0.727800     -0.743546     -1.063099
Ti       1.82303      9.73222      2.44671         0.464231     -0.856053     -0.902814
Ti       1.83744      9.67432     15.63123         0.114592      0.127372      0.617613
Ti      13.59600      9.75614      2.58490        -0.921461     -0.470226     -1.134453
Ti      13.54312      9.91376     15.73451         0.556207     -0.400599     -1.738970
Ti       1.99325      9.69609      6.69013        -0.409549      0.691919     -0.153433
Ti      13.62816      9.66350      6.80129        -0.680313      0.476924      0.088405
Ti       1.92992      9.64747     11.22129        -0.754958      0.569415     -1.224153
Ti      13.62933      9.82596     11.09555         0.535116      0.145755     -0.726908
Ti       5.87235      1.92598      2.34530        -0.109581     -0.414819     -0.324169
Ti       5.82491      1.89042     15.52521        -0.305558      1.237377     -0.169132
Ti       5.75512     13.63114      2.25174         0.099868      0.018259      1.383908
Ti       5.85577     13.57489     15.65572        -0.240626      0.107318     -0.321220
Ti       5.84851      1.90518      6.74544        -1.252124      0.518614     -0.352945
Ti       5.75580     13.64104      6.78680        -0.055762     -0.498582     -0.525108
Ti       5.76809      1.92676     11.12529         0.111484      0.494317      0.023098
Ti       5.76229     13.63303     11.26462        -0.295126     -0.230223     -1.381985
Ti       5.83201      5.75250      2.25881        -0.039614      0.911254     -1.414371
Ti       5.71958      5.84204     15.66940         0.428755     -0.855712     -0.772306
Ti       5.77959      5.78600      6.69769         0.675046      0.280882      0.023226
Ti       5.85630      5.85009     11.00276        -0.417656      0.413935      0.400529
Ti       5.77777      9.78328      2.26672         0.869441     -0.838869      0.150711
Ti       5.81489      9.63414     15.61175        -0.507856      0.504865     -0.408028
Ti       5.82415      9.74578      6.75476        -0.318474     -1.090698     -0.630293
Ti       5.85158      9.71210     11.25713        -0.064745     -0.036930     -1.311487
Ti       9.76229      1.96582      2.33548         0.026725      0.691862     -0.407850
Ti       9.61366      1.90801     15.55819         0.556024     -0.298715      0.371639
Ti       9.69199     13.66193      2.36172        -0.998636     -0.697246     -0.893815
Ti       9.83213     13.60814     15.61824        -0.635065      0.290311      0.273857
Ti       9.66030      1.99964      6.62680         0.214370     -0.488138      0.075318
Ti       9.66825     13.63321      6.79965        -1.084989      0.288262     -0.557464
Ti       9.71827      1.81991     11.18327        -0.510218      0.387165     -0.601699
Ti       9.67234     13.58381     11.20556         0.536110      1.477028     -0.814461
Ti       9.74845      5.86789      2.25809         0.516057      0.076753     -0.741745
Ti       9.69415      5.82013     15.51415        -0.275745      0.182386      1.734922
Ti       9.69780      5.87344      6.74017         0.150308      0.273730     -1.207746
Ti       9.74904      5.78692     11.20569        -0.459355     -0.192690     -0.856633
Ti       9.68185      9.73153      2.33301        -0.231668      0.423439     -0.191397
Ti       9.64736      9.72270     15.56482         0.774914     -0.091663      0.847905
Ti       9.68081      9.71962      6.80522         0.495142     -0.307774     -0.323848
Ti       9.76951      9.75216     11.22747        -0.460862     -0.747866     -1.296752
O       2.14731      1.92501      0.60340        -0.741607     -0.258773      1.801153
O       1.91062      1.96318     13.73721         0.031551     -0.172840     -0.530214
O       1.80315     13.67103      0.54510         0.239909     -0.332480      1.117228
O       1.91704     13.42500     13.81958         0.148162      0.198272      0.693784
O      13.67561      1.92732      0.50801        -0.168599      0.141493      0.026408
O      13.66238      1.87527     13.90652        -0.093968      0.454495      0.126674
O      13.66183     13.51924      0.60494        -0.355985      0.176333      1.085169
O      13.64628     13.68658     13.81273         0.101559     -0.077482      1.206083
O       1.89627      1.75313      4.94431        -0.170611      0.397469      1.207547
O       1.69153     13.71356      5.10999         0.018214      0.256338      1.200549
O      13.51768      2.00523      4.94854        -0.353716     -0.295596      1.601228
O      13.47668     13.63768      5.14466        -0.015141     -0.005713      0.577287
O       1.80427      1.97818      9.32886         0.235023     -0.138549      2.189646
O       1.82411     13.79000      9.44119         0.078567     -0.709745      0.923627
O      13.62687      1.86663      9.46004        -0.220034      0.770563      1.289468
O      13.41134     13.83154      9.41426         0.222410     -0.566101      0.813034
O       1.90472      5.88461      0.51238        -0.079983     -0.276195      0.206411
O       1.88105      5.60854     13.85207        -0.000398      0.887496      0.302592
O      13.66822      5.78502      0.57755        -0.185397      0.384767     -0.177770
O      13.67561      6.13843     13.86840        -0.112604     -0.808175      1.028137
O       1.88892      5.80846      4.99215         0.178549     -0.163045     -0.451578
O      13.69183      5.82067      5.13195        -0.019239      0.063519      0.817944
O       1.85435      5.88422      9.35294         0.197235      0.145891      1.826275
O      13.62449      5.74980      9.36471        -0.201995      0.323540      1.546238
O       1.76865      9.67477      0.62419         0.120843      0.301468      1.593515
O       1.82166      9.75019     13.90153        -0.098042      0.105324     -0.338597
O      13.55150      9.86143      0.79250         0.326113     -0.335866      0.043080
O      13.61761      9.95264     13.90592        -0.521927     -0.719816      1.116833
O       1.94706      9.74526      4.91002         0.116188      0.042512      0.247593
O      13.57961      9.53417      5.02542         0.117645      0.749686      0.237115
O       1.98676      9.71308      9.44116        -0.369518     -0.281893      0.466069
O      13.55287      9.75859      9.27837         0.255632      0.164085      2.047943
O       5.69321      1.93278      0.57924         0.447323      0.154675      0.996509
O       5.84631      2.06999     13.74237        -0.080002     -0.659257      1.032233
O       5.86354     13.46483      0.49936        -0.364389      0.415656     -0.058795
O       5.73164     13.60220     13.88450         0.300492      0.039900      0.751632
O       5.72753      1.92993      4.95270         0.174250     -0.316148      1.121035
O       5.71830     13.52493      5.03009         0.041052      0.265940      0.313658
O       5.60683      1.92989      9.36723         0.538688     -0.142466      0.546968
O       5.71816     13.68212      9.46400         0.242124     -0.084297      1.701019
O       5.68763      5.67375      0.49272         0.410580      0.491333      1.126458
O       5.77872      5.86177     13.83123        -0.165272      0.059217      1.677989
O       5.82641      5.68403      4.90235        -0.306383      0.547212      0.865410
O       5.84164      5.99934      9.24591         0.114631     -0.672289      1.116740
O       5.91367      9.75605      0.50658        -0.617656      0.167362      0.496968
O       5.82310      9.70013     13.78327         0.030089     -0.023890      1.130193
O       5.73691      9.68384      4.91853         0.228695      0.403763      1.940644
O       5.84032      9.82074      9.48970        -0.046670     -0.076308      0.780251
O       9.83607      2.03930      0.55428        -0.490433     -0.212011      1.370643
O       9.59865      1.94240     13.80188         0.350248      0.065546      0.571353
O       9.59806     13.73156      0.51525         0.556127     -0.270566      2.333670
O       9.68188     13.51022     13.86534         0.003203      0.161484      0.609745
O       9.70218      2.17493      4.85254        -0.103613     -0.789774      1.079157
O       9.64185     13.62596      5.02251         0.258772     -0.337004      0.098369
O       9.73811      1.87234      9.35904        -0.011674      0.054852      1.759975
O       9.72610     13.72665      9.34843        -0.281486     -0.286784      1.901171
O       9.96602      5.84229      0.41885        -0.625990      0.048110      2.138514
O       9.45813      5.80426     13.78137         0.939965     -0.074597      0.129971
O       9.65424      5.82766      4.91183         0.218536     -0.058979      1.878562
O       9.69359      5.81143      9.41032         0.017281     -0.145164      1.049820
O       9.65612      9.85204      0.55799         0.277187     -0.828080      1.357171
O       9.70359      9.82841     13.76325         0.149919      0.071207      1.170429
O       9.62662      9.77112      5.05612        -0.225426     -0.214169      0.005862
O       9.72117      9.60049      9.41818         0.019027      0.610960      1.760497
O       3.81622      1.86577      2.88954         0.280748      0.620231     -0.437373
O       3.90095      1.90092     15.94765         0.555704     -0.061288     -0.262831
O       3.87866     13.71097      2.71497        -0.998947     -0.525082     -0.281061
O       3.86300     13.51452     16.12025         0.283069     -0.047147     -0.500684
O      15.51023      1.87801      2.78507         0.150389      0.358091     -0.296613
O       0.05385      1.83320     15.98335        -0.296889      0.189627      0.191272
O      15.48331     13.62078      2.78014        -0.184931     -0.035921     -0.006516
O       0.07944     13.65979     16.06920        -1.034325      0.160403     -0.491159
O       3.84761      1.88211      7.19730        -0.060300     -0.222090     -0.290869
O       3.86678     13.73986      7.27421        -0.965501     -0.282703     -0.285884
O      15.47562      2.04460      7.06811         0.389667     -0.210306      0.108925
O      15.46308     13.66870      7.39776         0.198932     -0.204515     -0.441337
O       3.85016      2.04408     11.65479        -0.669593     -0.369789     -0.503529
O       3.83254     13.47844     11.71202        -0.229720      0.477372     -0.294238
O      15.58734      1.91108     11.66762        -0.107344      0.289695     -0.313512
O      15.47902     13.64084     11.72225         1.205642      0.327827     -0.530937
O       3.84282      5.75638      2.67813        -0.463956     -0.032082      0.116870
O       3.80370      5.88971     16.17291         0.187752     -0.244941     -1.060637
O      15.51058      5.87973      2.83159         0.283145      0.026037     -0.216922
O      15.52664      5.81631     16.15072         0.910807      0.126338     -0.588378
O       3.88490      5.92625      7.25456        -0.183619     -0.418127     -0.825470
O       0.07166      5.75657      7.27229        -0.762710      0.113426     -0.641736
O       3.84695      5.86477     11.43651         0.275400      0.005088      0.254908
O      15.56333      5.94295     11.63024        -0.554924     -0.176285     -0.064883
O       3.90131      9.76303      2.79223        -1.470274     -0.156770     -0.545442
O       3.81488      9.64255     15.84551         0.271264      0.538420      0.543534
O      15.50354      9.67785      2.95089         0.906668      0.557440     -0.437927
O      15.47766      9.71927     16.10574         0.262507     -0.212177      0.065090
O       3.81081      9.74119      7.24691         0.948321     -0.090183     -0.578491
O      15.56688      9.73810      7.10290         0.160253      0.258979      0.134835
O       3.76353      9.64418     11.68344         1.198922      1.070032     -0.009372
O      15.56614      9.72530     11.52349        -1.546007     -0.056357      0.083824
O       7.72922      2.01461      2.90011         0.224229     -0.448863     -1.066172
O       7.75757      1.94130     15.98461        -0.232878     -0.081289     -0.061646
O       7.72441     13.65685      2.85864         0.433346      0.055389     -0.455223
O       7.72092     13.66500     16.13303         0.158389     -0.333152     -0.999190
O       7.73288      2.02855      7.18274         0.281910     -0.154230     -0.424629
O       7.62490     13.62798      7.23873         1.663014     -0.280479      0.085899
O       7.78195      1.81233     11.49742        -0.045962      0.326041     -0.031743
O       7.67590     13.80384     11.67958         0.844662     -0.905040     -0.721634
O       7.77554      5.79997      2.52501         0.060829     -0.142613      0.296737
O       7.72081      5.95986     16.09698         0.860899     -0.468781     -0.740440
O       7.75020      5.73869      7.07331         0.249291     -0.073952      0.213354
O       7.77243      5.85800     11.61512        -0.182715      0.269417     -0.612504
O       7.66591      9.73620      2.85385         0.365955     -0.493876     -0.382056
O       7.77180      9.66027     16.06623         0.436839      0.317235     -1.117618
O       7.70205      9.75992      7.29291         0.235745      0.046310     -0.391693
O       7.78297      9.67725     11.69503         0.577342      0.540112     -0.427054
O      11.68006      1.87068      2.78304        -0.587191      0.395293     -0.232942
O      11.65061      1.82881     16.01027         0.077731      1.081901     -0.499306
O      11.59166     13.52591      2.82733        -0.039934      0.297308     -0.262574
O      11.68101     13.62886     15.99585         0.387813     -0.029629     -0.030167
O      11.50305      1.92836      7.05214         1.056653     -0.031336      0.152808
O      11.50309     13.73945      7.32150         1.036676     -0.949588     -0.595797
O      11.71894      1.90003     11.79043        -0.189049      0.754163     -0.691965
O      11.66598     13.70441     11.67797        -0.974986     -0.323140     -0.106920
O      11.67834      5.98181      2.85573        -0.398270     -0.771816     -0.503068
O      11.72887      5.75967     16.01184        -0.198336      0.079901     -0.944196
O      11.64858      5.96093      7.30223         0.159693     -0.590106     -0.524412
O      11.64967      5.86260     11.62092         0.188605     -0.023497      0.232151
O      11.62920      9.79400      2.83162        -0.671534     -0.370251      0.135050
O      11.61501      9.82007     16.17849         0.381273      0.062741     -0.675784
O      11.60612      9.56994      7.05965         0.456149      0.264330      0.458119
O      11.73972      9.83522     11.60893        -0.634281     -0.237509      0.025820
O       1.70051      3.95839      2.80663         1.352528     -1.195049     -0.777785
O       2.00121      3.79523     15.93261        -0.493267      0.436911      0.318613
O       1.79920     15.55637      2.77801         0.207942      0.108148     -0.297783
O       2.02553     15.55600     16.03042        -0.048714     -0.565309     -0.484625
O      13.54060      3.94938      2.69172         0.146338     -0.883745      0.160208
O      13.78969      3.84020     16.00588        -0.773432      0.668548     -0.388277
O      13.50809      0.04357      2.67850         0.042065     -1.589960      0.212669
O      13.58297      0.01857     16.06924         0.793241     -1.117511     -0.327986
O       1.98752      3.82895      7.21808        -0.018574      0.290150     -0.600433
O       1.84395      0.03074      7.31516        -0.285597     -0.046018     -0.371011
O      13.47648      3.90346      7.25125         0.265067     -0.535973     -0.274554
O      13.53702      0.04012      7.28016        -0.187295     -0.086152     -0.628431
O       1.85630      3.96121     11.57905        -0.178871     -0.852575     -0.188700
O       1.92032     15.56035     11.61050         0.235881      0.493102      0.006803
O      13.67258      3.96914     11.77807        -0.552584     -0.593105     -0.597634
O      13.59714      0.00982     11.68999         0.326173      0.800772      0.030184
O       1.86128      7.77650      2.85131         0.294211      0.384858     -0.646114
O       1.95696      7.71287     15.99493        -0.937411      1.058211     -0.298081
O      13.59594      7.73899      2.91644         0.041714      1.147239     -0.412583
O      13.63755      7.77047     16.21589        -0.391924      0.455017     -0.802899
O       1.91510      7.78579      7.16147         0.001094      0.027563     -0.437076
O      13.70643      7.76427      7.33193        -0.140036      0.023792     -0.618276
O       1.86152      7.80454     11.81466         0.158446     -0.499927     -0.641876
O      13.58677      7.78053     11.58353        -0.339485      1.223678     -0.098118
O       1.86863     11.74228      2.80650        -0.245841     -0.741462     -0.205016
O       1.79936     11.60821     16.12504         0.582832      0.119782     -0.312133
O      13.55589     11.65040      2.99195         0.299640      0.700940     -0.058404
O      13.69992     11.73912     15.98689        -0.304257      0.391853      0.442622
O       1.94741     11.67792      7.12169        -0.587982      0.318225      0.411751
O      13.49023     11.63617      7.33954         0.116733      0.549850     -0.740966
O       1.72963     11.61808     11.56663         0.911914      0.527555     -0.067868
O      13.59122     11.83532     11.62618        -0.034935     -2.154595     -0.447941
O       5.80405      3.88807      2.77560        -0.393408     -0.779618     -0.110243
O       5.88537      3.94624     16.02836        -0.350258     -0.781416     -0.452031
O       5.76243     15.52097      2.64678         0.332916      1.079391      0.189531
O       5.82094     15.59867     16.08052         0.143105     -0.566594     -0.959985
O       5.68362      3.88461      7.07673         0.150723     -0.227629      0.212805
O       5.84914     15.53549      7.24761        -0.171837      1.444284     -0.553946
O       5.88225      3.91011     11.45633        -0.179200      0.149647     -0.348430
O       5.69636      0.05957     11.69965        -0.062876     -0.766614     -0.238548
O       5.69687      7.72996      2.67574         0.421915      0.191906      0.004379
O       5.76458      7.80007     16.21354         0.114116      0.167486     -0.844775
O       5.89467      7.83817      7.16735        -0.400509     -0.012477     -0.460997
O       5.74010      7.85246     11.54149         0.308298     -1.062352      0.126495
O       5.70605     11.67977      2.78545         0.514074      0.192103     -0.459758
O       5.84872     11.58215     16.07288        -0.259111      0.299901     -0.681059
O       5.82600     11.69437      7.31120        -0.339951     -0.502205     -0.579486
O       5.86508     11.68760     11.67649        -0.152870     -0.028039      0.151537
O       9.75288      3.89148      2.79341         0.124618      0.346404     -0.670522
O       9.63535      3.91560     16.09109         0.748500     -0.210965     -1.294577
O       9.60763      0.03056      2.80456         0.924502     -0.546271     -0.591516
O       9.67988      0.03309     16.17996         0.172675     -0.559853     -1.131342
O       9.81362      3.90380      7.20112        -0.339008     -0.009960     -0.258514
O       9.59427     15.56049      6.97515        -0.319010      0.856165      0.212633
O       9.76742      3.87664     11.62396        -0.073596     -0.234444     -0.264775
O       9.77846     15.57262     11.76505        -0.261569     -0.028518     -0.696605
O       9.64458      7.68855      2.85293        -0.040978      1.439905     -0.680172
O       9.79898      7.79467     15.88539        -0.063476      0.426198     -0.305400
O       9.60776      7.73513      7.26037         0.146479      0.156348     -0.701642
O       9.73173      7.82246     11.71261         0.457155      0.136532     -0.327924
O       9.46134     11.63620      2.64504         0.958033      0.766229      0.180422
O       9.69623     11.74853     16.29858         0.101724     -0.346604     -1.817485
O       9.62597     11.61193      7.21165         0.548634      0.815256      0.155643
O       9.67832     11.78153     11.56633        -0.165064     -1.259387     -0.153349
