  # total energy = -7879.71003786 
CRSYTAL
PRIMVEC
    15.2000000000000000    0.0000000000000000    0.0000000000000000
     0.0000000000000000   15.2000000000000000    0.0000000000000000
     0.0000000000000000    0.0000000000000000    17.000000000000000
PRESSURE
7.47495 7.64067 3.94758 0.076705 0.062643 0.022813
PRIMCOORD
320 1
Pb       3.77531      3.71448      4.13129        -0.117443      0.406781      0.261586
Pb       3.91191      3.82455     16.93682        -0.527962      0.196421     -0.370005
Pb       3.69207      0.04915      4.25786         0.400473     -0.323011      0.107074
Pb       3.75009     15.18368     16.96713         0.138679      0.002768     -0.098357
Pb       0.02641      3.81619      4.24197        -0.177582      0.230009     -0.567519
Pb      15.17879      3.68135      0.08800        -0.458138      0.302361     -0.173233
Pb       0.00520      0.07275      4.31022         0.350605     -0.648128     -0.338721
Pb      15.05823     15.15482      0.03327         0.248256      0.060015      0.024662
Pb       3.99454      3.77395      8.51541        -0.670245     -0.102490     -0.057300
Pb       3.78038     15.05335      8.70786         0.161860      0.386371     -0.971262
Pb       0.15192      3.78313      8.49847        -0.879796     -0.185559      0.239379
Pb      15.15424     15.03956      8.48604         0.180171      0.484684     -0.117124
Pb       3.71762      3.82672     12.71192         0.189399      0.062711      0.268443
Pb       3.59228      0.06514     12.80316         0.821835     -0.399514     -0.058332
Pb      15.12572      3.83855     12.66232         0.054953      0.033854      0.244716
Pb      15.18985      0.15956     12.82968        -0.069834     -0.682685     -0.251047
Pb       3.79172      7.46513      4.18323         0.220523      0.352684      0.520182
Pb       3.82900      7.54380     16.95692        -0.140782     -0.131177      0.161223
Pb      15.19740      7.62767      4.18093        -0.256550     -0.094448      0.128295
Pb      15.08163      7.55121     16.91019        -0.095529      0.393725      0.536663
Pb       3.86580      7.67899      8.43030        -0.303107     -0.304124     -0.167646
Pb       0.05944      7.52214      8.38130        -0.625032      0.276846      0.244280
Pb       3.72673      7.56375     12.66447         0.025491      0.069132      0.831661
Pb       0.00486      7.60445     12.60804        -0.337218      0.181080      0.583813
Pb       3.68330     11.23989      4.24123         0.075520      0.092896     -0.063074
Pb       3.84938     11.30845      0.25807        -0.207150      0.412785     -1.207899
Pb       0.04601     11.38499      4.18489        -0.388169     -0.161875     -0.115969
Pb      15.19171     11.39596      0.08902        -0.012965     -0.363307     -0.051111
Pb       3.86250     11.34036      8.56704         0.268408      0.405388     -0.446540
Pb      15.18720     11.39842      8.41690         0.103606      0.117312      0.135520
Pb       3.62921     11.32120     12.88325         0.188259      0.348997     -0.403031
Pb      15.18121     11.32324     12.85918         0.202303     -0.022551     -0.834394
Pb       7.47380      3.63088      4.22293         0.042077      0.340738     -0.151581
Pb       7.54127      3.72089     16.85983         0.057935      0.436249      0.553387
Pb       7.59045     15.07823      4.28583        -0.376108      0.493007     -0.083971
Pb       7.64864     15.12961     16.95734        -0.184951      0.090611      0.160836
Pb       7.58287      3.78630      8.57810        -0.003764     -0.226917     -0.257283
Pb       7.65748     15.16028      8.41195        -0.207429     -0.095627      0.730746
Pb       7.60138      3.91600     12.79154        -0.281464     -0.670964      0.019688
Pb       7.60274      0.01294     12.73707         0.030306      0.125738      0.304646
Pb       7.70935      7.45512      4.26328        -0.416487      0.197355     -0.693096
Pb       7.52442      7.72616     16.89731         0.729793     -0.786670      0.561757
Pb       7.56800      7.61371      8.48065         0.050335      0.037453      0.099718
Pb       7.53285      7.66214     12.73008         0.083156     -0.291189      0.225210
Pb       7.55318     11.22711      4.36036         0.461261      0.544902     -0.977862
Pb       7.71587     11.43365     16.87729        -0.182218     -0.068803      0.529825
Pb       7.63588     11.43135      8.56831        -0.409763      0.148238     -0.171484
Pb       7.53379     11.33433     12.69511         0.236501      0.497385      0.016827
Pb      11.27199      3.73642      4.31233         0.224420      0.067737     -0.479088
Pb      11.30466      3.64094      0.01359         0.317217      0.370468     -0.053378
Pb      11.36910     15.13915      4.26363        -0.126929     -0.062281      0.123531
Pb      11.39430     15.13516      0.00617        -0.066233      0.181186     -0.043083
Pb      11.42957      3.86404      8.51819         0.212243     -0.576831     -0.337804
Pb      11.42712      0.02988      8.24179        -0.120666     -0.040604      0.737621
Pb      11.32591      3.83826     12.76736        -0.195043     -0.130254      0.129813
Pb      11.47606      0.02184     12.58570        -0.861322     -0.337084      0.983045
Pb      11.36341      7.63176      4.23698         0.477546     -0.197749     -0.333390
Pb      11.28015      7.51391     16.91199         0.260490      0.547359      0.220980
Pb      11.31608      7.52578      8.49718         0.156390      0.404794     -0.249616
Pb      11.38858      7.60436     12.69458        -0.201814      0.414275     -0.103483
Pb      11.28604     11.19306      4.30046         0.613390      0.877121     -0.804265
Pb      11.36222     11.58267     16.90763         0.129371     -0.942263      0.281451
Pb      11.50393     11.42552      8.46883        -0.499044     -0.104720      0.346469
Pb      11.40430     11.54465     12.56902        -0.226959     -0.776389      0.530917
Ti       1.84934      1.93290      2.10856         0.307369     -0.177882     -0.315541
Ti       1.85160      1.93450     14.99540         0.675649      0.674818      0.189153
Ti       1.86850     13.28598      2.26540        -0.384117     -0.168036      1.689241
Ti       1.86796     13.37070     15.04818         0.189257     -1.542162     -0.440777
Ti      13.24900      1.81829      2.30775         0.521326      1.142599     -0.180415
Ti      13.30905      1.93258     15.01661        -1.024631     -0.439563      0.545040
Ti      13.26927     13.27568      2.32132         0.058623     -0.844324      0.127076
Ti      13.37697     13.25005     14.94999        -0.761767      0.956186      0.254478
Ti       1.85682      1.87119      6.61995         0.797128     -0.769219      0.138111
Ti       1.91357     13.26003      6.41359        -0.068765      0.760706      1.017727
Ti      13.36977      1.90377      6.33980        -0.954640     -0.126153      0.848996
Ti      13.29024     13.24684      6.43926         0.742957      0.141756     -1.127098
Ti       1.87313      1.88636     10.75829         0.492601      0.107007      0.076715
Ti       1.85893     13.27826     10.75867         0.235265     -0.583553      1.879097
Ti      13.25986      1.86950     10.74836         0.401891      0.832105     -0.439795
Ti      13.35925     13.32922     10.74855        -0.646735     -1.373992     -0.597608
Ti       1.87315      5.68760      2.15979        -0.412368     -0.166734     -0.190547
Ti       1.75113      5.72760     15.05514         1.513993     -0.164314     -0.076564
Ti      13.22912      5.68240      2.20651         0.607950     -0.187783      1.273677
Ti      13.19326      5.70890     14.93109         0.250544     -0.638346      0.762111
Ti       1.84498      5.65150      6.51544         0.981688      0.404461     -0.294557
Ti      13.22481      5.67216      6.43287         0.243590      0.389358      1.098680
Ti       1.80392      5.69589     10.69012         0.717740      0.085203     -0.055052
Ti      13.16059      5.64206     10.70790         0.466947      0.569806     -0.872002
Ti       1.96294      9.31359      2.05317        -1.766508      1.810674      1.543134
Ti       1.91247      9.50331     15.09539         0.038997      0.279601     -0.419788
Ti      13.29411      9.45930      2.16732         0.252078      0.396311     -0.212129
Ti      13.28899      9.51465     14.94572        -0.231033     -0.486867      0.760333
Ti       1.87203      9.53025      6.46342         0.620351     -0.560185     -0.478625
Ti      13.29431      9.45476      6.47366        -0.114743     -0.269113     -0.826119
Ti       1.81124      9.45928     10.58778         0.346141      1.055772      1.307139
Ti      13.26201      9.45167     10.64129        -0.195497      0.458746      3.182690
Ti       5.59959      1.85822      2.12121         1.554015     -0.294710      0.053252
Ti       5.65370      1.87611     14.92708         0.298204      0.524802     -0.644032
Ti       5.60585     13.25853      2.22016         1.110809      1.008660     -0.063048
Ti       5.66616     13.33124     15.01552         0.358418     -0.375398     -0.273481
Ti       5.65291      1.84939      6.54485         0.476734     -0.606941      0.607954
Ti       5.66520     13.32341      6.43087        -0.156221     -0.856042      0.422614
Ti       5.73645      1.86225     10.82118         0.031721     -0.378910      0.199809
Ti       5.63017     13.25490     10.95916         0.128596     -0.050241      0.588419
Ti       5.68236      5.70432      2.25387         0.675196     -0.465319     -0.350056
Ti       5.69172      5.79487     15.04511        -0.577196     -0.874239      0.033151
Ti       5.63486      5.68751      6.42633         0.062333      0.109259      0.901870
Ti       5.64641      5.69116     10.67816        -0.234743      0.439689     -0.413042
Ti       5.74448      9.50626      2.20931         0.576799     -0.152536      0.353605
Ti       5.71357      9.58365     15.00121        -0.645008     -0.843242      0.764435
Ti       5.76085      9.53466      6.42050        -1.822553      0.280322      0.051923
Ti       5.61325      9.47347     10.76432         0.406574      0.616303     -0.093737
Ti       9.39516      1.86602      2.27037        -0.427107     -0.124240     -0.711077
Ti       9.46651      1.88926     14.94265         0.103653     -0.259675      0.098424
Ti       9.46736     13.29647      2.32000        -0.057987     -0.636693      0.151621
Ti       9.53220     13.34690     14.89375        -0.358600     -0.160216     -0.484318
Ti       9.45445      1.90180      6.48589         0.264481     -0.670315     -0.652693
Ti       9.49382     13.20599      6.49422        -0.505962      0.381936      0.941345
Ti       9.55924      1.92887     10.71829        -1.484900     -0.972001      0.383753
Ti       9.44897     13.33416     10.69642         0.411656      0.295378      0.347694
Ti       9.51360      5.67908      2.21443        -0.831607     -0.591458     -1.082730
Ti       9.49141      5.63128     14.98004        -0.394104      0.814613     -0.698072
Ti       9.39771      5.61022      6.49728         0.193323      0.612926      1.330401
Ti       9.37848      5.72942     10.69260         0.472874      0.469555      0.580312
Ti       9.47892      9.47942      2.04825         0.285802      0.627906      2.262741
Ti       9.52073      9.46248     14.80826         1.075260      0.509580      0.604086
Ti       9.48376      9.46198      6.49536         0.514754      0.093822      0.037628
Ti       9.48230      9.49097     10.72284         0.331391     -0.028020     -0.240377
O       1.86754      2.06914      0.32193         0.101553     -0.523561      0.065619
O       1.82228      1.88314     13.18373        -0.083015     -0.040176     -0.127451
O       1.82870     13.28377      0.56403         0.323127      0.418112     -1.786181
O       1.81721     13.37656     13.23212        -0.137586     -0.176813      0.946077
O      13.32055      1.85486      0.50215        -0.200873     -0.257732     -0.143554
O      13.23730      1.83791     13.25517         0.288097      0.495999     -0.575480
O      13.18699     13.33715      0.49182         0.302040      0.233089      0.526986
O      13.42619     13.25954     13.17476        -0.168920      0.004961      0.000033
O       1.88104      1.86202      4.83310        -0.113818      0.338123     -0.242313
O       1.93335     13.39233      4.66199        -0.039696     -0.412234     -0.491577
O      13.56096      1.89974      4.56899        -0.526707      0.196420      0.070117
O      13.33350     13.12522      4.65766        -0.097614      0.386119      0.942286
O       1.89927      1.79869      8.99658         0.057695      0.505461     -0.332207
O       1.77488     13.29058      9.02231         0.458991      0.072971     -0.714495
O      13.19664      2.04641      9.01712        -0.032674     -0.274529     -0.374564
O      13.34289     13.30417      8.94433        -0.015034     -0.179984     -0.403129
O       1.92625      5.74142      0.38197        -0.479952     -0.406850      0.363800
O       1.96716      5.89456     13.28207        -0.691978     -0.671776     -0.454187
O      13.08021      5.77688      0.48961         0.535704     -0.340690     -0.584706
O      13.20153      5.63251     13.15744        -0.069816      0.195117     -0.288560
O       1.89664      5.61813      4.73437        -0.037649      0.224552      0.020829
O      13.26764      5.83262      4.70647         0.082895     -0.479181     -0.623220
O       1.91579      5.55734      8.93812        -0.308310      0.406258     -0.227996
O      13.14436      5.58537      8.85038         0.173841      0.103697      1.505602
O       1.82780      9.48506      0.31920         0.322123     -0.085350     -0.128051
O       2.00758      9.47872     13.27565        -0.483076      0.041157      0.296202
O      13.46988      9.45314      0.39667        -0.782040      0.044236      0.091978
O      13.25978      9.47278     13.17764         0.224858      0.137468      0.081085
O       1.88571      9.57571      4.64428         0.075687     -0.557101      0.728094
O      13.38610      9.50932      4.65736        -0.690899     -0.200824      0.644094
O       1.89303      9.48570      8.83543        -0.200133      0.174417     -0.081021
O      13.28950      9.42120      8.96896         0.023741      0.247636     -2.956726
O       5.73350      2.00853      0.33312        -0.201851     -0.667513      0.184122
O       5.68996      1.90025     13.13521        -0.246870      0.166917      0.114560
O       5.69395     13.27021      0.39206        -0.408726     -0.001436      0.919848
O       5.72470     13.28174     13.24088        -0.176051      0.115715      0.535667
O       5.68133      1.79832      4.79857        -0.275578      0.146990     -0.445598
O       5.72532     13.41587      4.68329        -0.237636     -0.504409     -0.481029
O       5.73895      1.86233      9.01796        -0.076118      0.252525      0.142703
O       5.65940     13.01716      9.24210        -0.161970      0.480364     -1.718200
O       5.68146      5.71856      0.46318         0.177593     -0.246412      0.103491
O       5.64029      5.96524     13.30964        -0.084213     -0.809836     -1.083237
O       5.61187      5.73639      4.65064         0.184545     -0.143145      0.214110
O       5.71197      5.73806      8.86034        -0.362932     -0.406112      1.001889
O       5.75252      9.61046      0.41477         0.159652     -0.208871      0.636786
O       5.66514      9.36354     13.26301        -0.002299      0.280639     -0.952437
O       5.73727      9.62670      4.60796        -0.127478     -0.424793      0.576401
O       5.65123      9.67488      8.94742         0.016575     -0.497347      0.843349
O       9.27991      1.77033      0.42082         0.646613      0.471363      1.372761
O       9.50321      1.92421     13.18409         0.249811      0.496530     -0.281929
O       9.61264     13.37499      0.54243        -0.275591      0.012879     -0.662783
O       9.61555     13.36414     13.14321        -0.421964     -0.428142     -0.008545
O       9.28919      2.04028      4.68502         0.895795     -0.237749      0.384077
O       9.49644     13.16262      4.75399         0.022781      0.021003     -0.878743
O       9.41007      1.75767      8.95771         0.638856      0.149446     -0.261609
O       9.48031     13.43505      8.89101         0.085376     -0.415704      0.560493
O       9.48479      5.74325      0.39809         0.081499     -0.356207      1.076886
O       9.49959      5.55099     13.15486         0.015881      0.223871      0.230021
O       9.40449      5.54377      4.76387         0.141745      0.313753     -1.010878
O       9.34863      5.93430      8.91232         0.302077     -0.786676      0.103395
O       9.49596      9.46631      0.34247        -0.108245      0.118037     -1.173621
O       9.46077      9.54531     13.02545         0.346400     -0.043741      1.002032
O       9.63402      9.58985      4.66455        -1.001381     -0.552393      0.804670
O       9.43192      9.42404      8.92431         0.020678     -0.053411      0.062708
O       3.79533      2.09583      2.39818        -0.976534     -0.398598      0.549562
O       3.72964      1.75874     15.17295         0.974874     -0.063886      0.583280
O       3.73830     13.11007      2.62119         0.699882      0.242198     -0.296396
O       3.77595     13.30979     15.44243         0.073883      0.432528     -0.148271
O       0.03935      1.89439      2.40387        -0.495089     -0.568572      0.637400
O      15.18257      1.97728     15.34385        -0.074410      0.099461      0.124700
O      15.19612     13.35362      2.71039         0.182136      0.336969     -0.429015
O      15.19511     13.24675     15.54818        -0.206066      0.268156     -0.639600
O       3.84018      1.82030      6.92342        -0.750087      0.140392      0.214672
O       3.71071     13.35560      6.83570         1.103134     -0.270858      0.395161
O      15.12130      1.81030      6.98750         1.055154      0.836767     -0.251740
O       0.06007     13.29111      6.83510        -1.212076     -0.123871      0.155984
O       3.78979      1.84425     11.11531        -0.383037      0.430013      0.084768
O       3.75688     13.22301     11.25034        -1.308332      0.813149     -0.288705
O      15.19591      1.91476     11.07671        -0.921781      0.446691      0.341487
O      15.16840     13.24863     11.09630         0.629083     -0.090376      0.169809
O       3.76122      5.59542      2.59224         0.460767     -0.107505      0.128986
O       3.78549      5.75212     15.48628         0.060022      0.241124     -0.474686
O      15.18358      5.84717      2.59942        -0.040864     -0.206122     -0.371445
O      15.09572      5.63750     15.38064         0.470546     -0.449407     -0.247903
O       3.76402      5.68779      6.78689         0.739442     -0.049812      0.320428
O      15.16860      5.63123      6.90301        -0.137418      0.176789     -0.229532
O       3.71082      5.83246     11.04687         0.481762     -0.483641     -0.089314
O      15.11828      5.62989     11.05889        -0.226769     -0.141348      0.008741
O       3.80963      9.53262      2.55245         0.539671      0.354748     -0.364406
O       3.86059      9.43825     15.53921        -0.753472      0.462947     -0.632862
O      15.17697      9.14884      2.43989         1.270538      0.576198      0.183945
O      15.19705      9.56450     15.29931        -0.417402     -0.101693     -0.146165
O       3.79516      9.57341      6.72067         0.166287     -0.229742      0.346004
O      15.16649      9.43096      6.75590         0.449476      0.019590      0.528319
O       3.74436      9.35461     11.02997        -0.044137      0.312680     -0.338089
O      15.13456      9.53868     11.06822         0.682328      0.188006      0.087350
O       7.48052      1.67603      2.69077         0.698049      0.598919     -0.550819
O       7.59685      2.07915     15.26988        -0.200928     -0.425699     -0.276704
O       7.61874     13.49363      2.59134        -0.811156     -0.311817     -0.279635
O       7.60352     13.21059     15.45305         0.174773      0.246016     -0.741473
O       7.63101      1.79290      6.93401        -0.743392      0.452244     -0.225903
O       7.61239     13.29219      6.85245         0.093851     -0.353596     -0.081329
O       7.61056      2.03527     11.23296        -0.249248     -0.421469     -0.584490
O       7.59474     13.31354     11.22308         0.254998     -0.599348     -0.369224
O       7.55069      5.64467      2.73079         0.734200      0.673478     -0.348243
O       7.62049      5.70822     15.28574        -0.397684     -0.306258      0.230642
O       7.53714      5.69941      6.90465        -0.105271     -0.159726     -0.454255
O       7.55659      5.65652     11.08641        -0.672103     -0.234523      0.083821
O       7.63091      9.41330      2.57391        -0.418933     -0.093957      0.138966
O       7.68339      9.47082     15.31209        -0.693518      0.626498     -0.304474
O       7.55485      9.59939      6.74491         0.386151     -0.036915      0.092363
O       7.63784      9.51153     11.12511        -2.251508      0.654108     -0.198054
O      11.39155      1.95859      2.65801        -0.678053     -0.088165     -0.071864
O      11.34124      1.77844     15.52137         0.641815      0.210381     -0.640259
O      11.41053     13.30511      2.75910        -0.105039     -0.499843     -0.343795
O      11.39375     13.42457     15.30723         0.791131      0.190927      0.206223
O      11.44537      1.83226      6.70885        -0.141581      0.401213     -0.067093
O      11.40783     13.24082      6.84347         0.356467     -0.051308     -0.044818
O      11.37639      1.96208     11.17851         0.415570     -0.811927     -0.312736
O      11.37866     13.31595     11.03196         0.188224      0.607344      0.001799
O      11.40074      5.53096      2.73793        -1.132126      0.216003     -0.270662
O      11.35225      5.65310     15.44274         0.325599      0.356783     -0.532092
O      11.31298      5.75207      6.81934         0.009795     -0.236737     -0.013908
O      11.26443      5.88685     11.05433         0.982687     -0.738914     -0.297281
O      11.35338      9.56578      2.50665         0.233553      0.055833      0.116017
O      11.42562      9.40883     15.36039        -0.377473      0.367104     -0.492147
O      11.34659      9.38942      6.85082         0.786235      0.563014     -0.121719
O      11.37795      9.44673     11.03835        -0.043311     -0.461455      0.068259
O       1.77652      3.82600      2.52041         0.141755     -0.156827      0.490809
O       2.05536      3.81624     15.20181        -0.636872     -0.005326      0.202781
O       1.98916      0.09466      2.63482         0.108750     -0.650176     -0.573659
O       1.87395      0.01137     15.46985        -0.593441      0.061274     -0.136819
O      13.43107      3.73155      2.55316        -0.187789      0.969499      0.148431
O      13.18096      3.79851     15.39941         0.074951     -0.411935      0.009533
O      13.26200     15.14734      2.79509         0.239222      0.557624     -0.576309
O      13.45933     15.19874     15.28884        -0.399954     -0.183823      0.331590
O       1.91347      3.78779      6.88714        -0.141187     -0.672206      0.234051
O       1.87562      0.01071      6.98395        -0.041578     -0.478773     -0.289952
O      13.23741      3.76960      6.67607         0.036099      0.252315      0.126131
O      13.38664     15.16619      6.62785        -0.532955     -0.247004      0.408164
O       1.84472      3.83230     11.11932         0.321584     -0.436841      0.220052
O       1.82005      0.01162     11.19233         0.170178     -0.388397     -0.389812
O      13.12090      3.79297     11.16312         0.591689      0.407283     -0.162876
O      13.34271     15.19508     11.00423        -0.254506      0.560977      0.423974
O       2.10420      7.54587      2.61663        -0.550565     -0.187267     -0.252720
O       1.80485      7.62165     15.39410         0.197654     -0.273107      0.044362
O      13.11768      7.61943      2.63935        -0.143450     -0.912459     -0.048426
O      13.32270      7.52071     15.33104        -0.240768      1.083487     -0.326503
O       1.94029      7.58902      6.99135        -0.247772     -0.185699     -0.827101
O      13.27620      7.59813      6.83273         0.124227     -0.489603      0.151054
O       1.71004      7.61851     10.99289         0.205073     -0.365897     -0.122966
O      13.34601      7.53545     11.06584        -0.356314      0.073250     -0.046390
O       1.80249     11.29228      2.47881        -0.057311      0.013476      0.129980
O       1.84505     11.45112     15.40677         0.588115     -0.293686     -0.176187
O      13.53483     11.36540      2.55735        -0.674176     -0.205147     -0.368320
O      13.23053     11.42634     15.38302         0.141000     -0.295382     -0.337408
O       1.82967     11.37693      6.82304         0.088805      0.251803     -0.078793
O      13.34306     11.37090      6.84262        -0.309709     -0.340550      0.375238
O       1.91204     11.35661     11.14427        -0.214587     -0.248604     -0.156020
O      13.15764     11.40452     11.04397         0.666338     -0.240153     -0.205154
O       5.76661      3.74482      2.55711        -0.238593      0.055445      0.168479
O       5.60982      3.76871     15.23457        -0.019604      0.998854      0.273919
O       5.48011     15.17891      2.63437        -0.132554      0.068588     -0.682575
O       5.86149      0.04216     15.26748        -0.493640     -0.879676      0.445473
O       5.71955      3.76715      6.86457         0.031729      0.153195     -0.105094
O       5.73773     15.05071      7.00705        -0.492496      1.905121      0.160741
O       5.59754      3.85818     11.06051        -0.134095     -0.319194      0.126250
O       5.63225     15.14044     11.15282         0.276637      1.302855     -0.199575
O       5.68869      7.58410      2.58653        -0.234573      0.464606      0.023981
O       5.71648      7.61928     15.48116         0.131853      0.577603     -0.085879
O       5.66919      7.63430      6.90256         0.130520      0.164367     -0.863435
O       5.74560      7.55944     11.08688         0.050921      0.875778     -0.347836
O       5.88739     11.44511      2.55662        -0.500863     -0.871690      0.105634
O       5.64680     11.37783     15.25556         0.299080      0.857752      0.331902
O       5.65550     11.49392      6.93801         0.129921     -1.185487     -0.455832
O       5.50864     11.37072     11.32890         0.893475     -1.885327     -0.042213
O       9.33427      3.76942      2.55717         0.368703     -0.441591     -0.012115
O       9.60808      3.80298     15.27001        -0.241407     -0.689980      0.548672
O       9.56542      0.01691      2.69600         0.296780      0.166098      0.188306
O       9.32143      0.02657     15.17283         0.096208     -0.612382      0.705541
O       9.49410      3.74417      6.96536        -0.145425      0.717406     -0.019007
O       9.58652     15.19469      6.71552        -0.283377     -0.568041      0.131750
O       9.53341      3.78751     10.88476         0.032975      1.235941      0.231030
O       9.45037      0.02117     11.27323         0.300505      0.069546     -1.110588
O       9.50161      7.55115      2.47300         0.247300      0.062213      0.736823
O       9.52328      7.59263     15.17586        -0.006064      0.131080     -0.005468
O       9.33956      7.63138      6.81512         0.104869     -0.870901     -0.383227
O       9.31226      7.62212     11.17747         0.739532     -0.628001     -0.405312
O       9.38536     11.39527      2.54789         0.215106     -0.098236     -0.077878
O       9.64565     11.47378     15.30439        -0.613897     -1.123930     -0.143883
O       9.49417     11.31465      6.99794         0.271045      0.933039     -0.466260
O       9.54465     11.42033     11.03049        -0.353890      0.287846     -0.258691
