  # total energy = -7881.43731131 
CRSYTAL
PRIMVEC
    15.3600000000000000    0.0000000000000000    0.0000000000000000
     0.0000000000000000   15.3600000000000000    0.0000000000000000
     0.0000000000000000    0.0000000000000000    17.440000000000000
PRESSURE
3.7254 3.61062 5.90666 -0.245016 -0.55418 0.031814
PRIMCOORD
320 1
Pb       3.80173      3.85307      4.38175         0.026918     -0.313135      0.073989
Pb       3.97115      3.81097     17.33351        -0.728339     -0.442277      0.608525
Pb       3.81839     15.33878      4.32693        -0.131857     -0.017994      0.485973
Pb       3.90912      0.03381     17.39453        -0.535326     -0.248411      0.031378
Pb      15.31335      3.83111      4.39801         0.393292     -0.149163     -0.058997
Pb       0.09002      3.83995      0.03356        -0.332987     -0.118565     -0.135084
Pb       0.02644     15.30814      4.31164        -0.089288      0.066850      0.498591
Pb      15.13730     15.31972     17.42248         0.527026     -0.148245      0.315900
Pb       3.77763      3.93341      8.54749         0.066016     -0.302779      0.768297
Pb       3.82304     15.32631      8.81076         0.120613      0.329318     -0.475232
Pb      15.08779      3.88522      8.59439         0.875994     -0.219099      0.870984
Pb      15.28499      0.15001      8.65864         0.345332     -0.281946      0.384222
Pb       3.88477      3.76466     12.93872        -0.338795      0.269240      0.638345
Pb       3.77906     15.23296     12.97422        -0.166094      0.564426     -0.118949
Pb      15.31555      3.70671     13.09046         0.602503      0.066333     -0.025372
Pb      15.35899      0.03644     12.91311         0.276088     -0.228988      0.275378
Pb       3.91332      7.70233      4.25891        -0.265571     -0.529472      0.285834
Pb       3.72862      7.66715      0.02670        -0.126662     -0.461206      0.091256
Pb       0.16580      7.67904      4.29298        -0.736773     -0.003550      0.143375
Pb      15.34495      7.80069     17.32188        -0.422483     -0.838066      0.704879
Pb       3.95378      7.61028      8.68821        -0.428714      0.141193      0.115434
Pb      15.33415      7.62576      8.66558         0.091422      0.362864      0.073895
Pb       3.82820      7.65632     13.06498         0.104671     -0.642779     -0.188744
Pb       0.05807      7.69715     13.06927        -0.588449     -0.334051      0.291762
Pb       3.67828     11.47236      4.30002         0.340847      0.395306      0.164583
Pb       3.98820     11.32443     17.30753        -0.560345      1.056269      0.821010
Pb       0.14358     11.63877      4.16256        -0.741082     -0.383282      0.858427
Pb      15.29813     11.45619     17.32453        -0.217194      0.652146      0.319699
Pb       3.78611     11.59764      8.70402         0.193707     -0.312628      0.027196
Pb       0.00136     11.37507      8.64058        -0.378794      0.305661      0.356520
Pb       3.96434     11.51663     12.97963        -0.770763     -0.082397      0.389942
Pb       0.08951     11.47822     13.12028        -0.235608      0.084379     -0.032411
Pb       7.67937      3.72536      4.38317         0.134392      0.333327      0.003005
Pb       7.73115      3.91490     17.24429        -0.460130     -0.630391      1.446120
Pb       7.67204      0.06428      4.30173         0.217513     -0.969142      0.372776
Pb       7.44255     15.34714     17.31082         0.813478     -0.373501      0.803152
Pb       7.65575      3.81651      8.67149         0.181251     -0.060860      0.295618
Pb       7.69282     15.26734      8.60691        -0.408179      0.210519      0.267572
Pb       7.80690      3.94788     13.22544        -0.776664     -0.191729     -0.695375
Pb       7.72211      0.11123     13.01262        -0.783249     -0.473413      0.111256
Pb       7.54919      7.56005      4.25887         0.516907      0.098644      0.675537
Pb       7.65692      7.63358     17.42118         0.000113      0.321354     -0.076477
Pb       7.59867      7.83172      8.61012         0.356298     -0.529013      0.260519
Pb       7.63084      7.62244     12.98779         0.046452     -0.293986     -0.070890
Pb       7.65799     11.41515      4.33424         0.228148      0.516062      0.234257
Pb       7.58888     11.63184     17.29158         0.047218     -0.563345      0.972432
Pb       7.73548     11.47119      8.68089        -0.793216      0.348477      0.055464
Pb       7.86350     11.64332     13.06533        -0.852065     -0.311202     -0.103900
Pb      11.58800      3.75023      4.35080        -0.480304      0.392955     -0.073258
Pb      11.52164      3.82941      0.01171         0.200563     -0.316547     -0.132996
Pb      11.56042      0.03281      4.22285        -0.416568     -0.705837      0.769956
Pb      11.44209     15.31873     17.19821         0.176898     -0.348951      1.436486
Pb      11.58285      4.02948      8.65221        -0.479348     -1.140651      0.430972
Pb      11.49831     15.27306      8.62035        -0.450739      0.753398      0.834592
Pb      11.52940      3.72780     13.21005         0.179650     -0.177288      0.011996
Pb      11.41040     15.33384     13.01001         0.586300      0.003672      0.436312
Pb      11.58081      7.69687      4.20887        -0.130165     -0.335759      0.578247
Pb      11.42104      7.58702     17.43421         0.250199      0.596288     -0.191685
Pb      11.55779      7.66250      8.63836        -0.204825      0.654029      0.127568
Pb      11.42577      7.70932     12.97778        -0.009333      0.054243      0.666318
Pb      11.56417     11.39629      4.38190        -0.218872      0.425629     -0.148728
Pb      11.39755     11.48802     17.35111         0.187632      0.260727      0.220364
Pb      11.48666     11.51180      8.81255         0.243027     -0.355127     -0.279203
Pb      11.48359     11.47434     12.93618         0.082652     -0.060288      0.639394
Ti       1.99975      1.86546      2.36253        -0.664581      0.489653      1.509411
Ti       1.98424      1.86560     15.43350        -0.964922     -0.256776     -1.005252
Ti       1.92145     13.51437      2.19931        -0.290895     -1.043419      0.747357
Ti       1.87799     13.45857     15.50917        -0.330931     -0.325653     -0.307430
Ti      13.54720      1.91484      2.43872        -0.517899     -0.367208     -0.696322
Ti      13.53880      1.88795     15.49366        -1.138391      0.189398      0.691044
Ti      13.38343     13.38097      2.38118        -0.084100      0.137446      0.366083
Ti      13.43401     13.38603     15.35892        -1.268764      0.220365      0.890554
Ti       1.90767      1.97289      6.80220         0.035775     -0.990097      0.347574
Ti       1.80123     13.42519      6.85126         0.096633      0.511541     -0.187807
Ti      13.37887      1.87692      6.73670         0.325187      0.509811      0.836462
Ti      13.34280     13.43097      6.78368         0.960867     -0.519560      0.387470
Ti       1.98736      1.98755     10.98390        -1.267615     -0.971465      1.019988
Ti       1.83539     13.36423     11.04874         0.176091      0.947561      0.616360
Ti      13.39762      1.87433     11.15453         0.339156     -0.242966     -0.247846
Ti      13.38658     13.35629     11.14930         0.055674      0.160692      0.956588
Ti       1.89573      5.68149      2.39885        -0.520928     -0.108084      0.311548
Ti       1.83597      5.70063     15.41180         0.184239     -0.103833      0.467568
Ti      13.41642      5.75607      2.35639         0.066449      0.135539      2.144795
Ti      13.40578      5.71194     15.44711        -0.155968     -0.385134      0.759155
Ti       1.78929      5.75917      6.68925         0.976837      0.428162      0.095531
Ti      13.36642      5.85132      6.62092         0.359455     -0.432145     -0.030343
Ti       1.86835      5.76333     11.07461         0.006891     -1.332957      0.328926
Ti      13.40711      5.64219     11.31215         0.750477      0.547760     -0.507440
Ti       1.90676      9.56531      2.33224        -0.106904     -0.044405     -0.024199
Ti       1.86194      9.59178     15.49093        -0.469690      0.137184     -0.324090
Ti      13.44128      9.55365      2.36734         0.443098      0.377400      0.676249
Ti      13.29816      9.54786     15.40279        -0.410336      0.157190      0.367794
Ti       1.97253      9.57790      6.70686        -1.412971     -0.172669      0.263634
Ti      13.43973      9.67071      6.66195        -0.511179     -0.305443      0.814040
Ti       1.90465      9.56230     11.07636        -0.639291      0.253748     -1.145093
Ti      13.37349      9.47945     11.17029         0.224719      0.859110      1.066036
Ti       5.78901      1.82125      2.42587        -0.292689      0.485123      1.246237
Ti       5.77989      1.89086     15.32972        -0.741394     -0.356728     -0.126608
Ti       5.68067     13.31244      2.44094         1.146427      0.511737      1.804745
Ti       5.62966     13.35937     15.24795         0.243571      0.264058      0.068346
Ti       5.74307      1.94110      6.74852        -0.379469     -0.397667      1.110706
Ti       5.58153     13.46740      6.64422         1.353739     -0.274975      1.078591
Ti       5.74604      1.89173     11.05484         0.208992      0.207659      0.496036
Ti       5.71265     13.38147     11.04505         0.855493      0.870713      0.113642
Ti       5.73564      5.63177      2.28082        -0.384959     -0.352549      0.830000
Ti       5.62322      5.72538     15.49039         0.424484     -0.068457     -1.046830
Ti       5.76778      5.79264      6.74932        -0.241826     -0.169390      0.484656
Ti       5.71873      5.71425     11.04997         0.404100     -0.450020      1.176229
Ti       5.78519      9.53182      2.35785         0.019610      0.550011      1.415753
Ti       5.67404      9.45407     15.32930         1.003019      0.676166      0.052070
Ti       5.65515      9.63459      6.63077         1.051914     -0.181978      0.433312
Ti       5.74318      9.59502     11.11725        -0.195765     -1.020522     -0.531608
Ti       9.64736      1.91393      2.40208        -0.156981     -0.687184      1.246751
Ti       9.56589      1.82967     15.51652         0.778489      1.093599     -0.951070
Ti       9.57798     13.32123      2.41325        -0.465133      1.084751      1.021923
Ti       9.45499     13.40456     15.41160         1.431740      0.060045     -0.477512
Ti       9.59796      1.92683      6.71760        -0.132976      0.100320      1.119252
Ti       9.52793     13.37912      6.67822        -0.333359      0.193460      0.302098
Ti       9.56053      1.94620     11.13951         0.080073     -0.813552     -1.459338
Ti       9.53403     13.42471     11.09102        -0.117805      0.715318      1.480018
Ti       9.53543      5.75478      2.34163         0.634256     -1.174931      0.492488
Ti       9.54864      5.73852     15.48637         0.540203      0.611956      0.572732
Ti       9.57570      5.74457      6.69290        -0.906206     -0.292659      0.083754
Ti       9.66203      5.63726     11.11612        -1.242741      0.668437     -0.185577
Ti       9.59255      9.51565      2.35380         0.128195      0.844350     -0.406916
Ti       9.43781      9.59104     15.40779         0.984763     -0.697492      0.798960
Ti       9.61303      9.60539      6.73872        -0.143491     -0.287557      1.102456
Ti       9.46875      9.51847     11.01818         1.239167      0.593855      0.053423
O       2.03296      1.92939      0.66770        -0.081161     -0.063534     -1.907358
O       1.93568      1.86334     13.65989         0.036149     -0.275399      0.323103
O       1.85241     13.44117      0.50864         0.283420      0.019908     -1.839201
O       1.80989     13.43519     13.77298        -0.012182      0.087677     -1.450848
O      13.52408      1.86706      0.69623        -0.138693      0.184298     -0.618357
O      13.44826      1.87854     13.79189         0.004560      0.230122     -2.209353
O      13.34032     13.38335      0.68383         0.082247      0.102262     -1.985521
O      13.42697     13.43956     13.65968         0.130084     -0.155584     -1.325447
O       1.95836      1.90272      5.09713        -0.132310      0.104403     -1.801733
O       1.92263     13.31919      5.12853        -0.141385      0.100037     -1.661167
O      13.52438      1.86102      5.05581        -0.082991      0.019314     -2.677063
O      13.49346     13.39997      5.09595        -0.228171      0.025005     -1.949680
O       1.83532      1.91281      9.27726         0.367013      0.047583     -1.476699
O       1.94650     13.27370      9.33823        -0.107775      0.163063     -1.552264
O      13.35443      1.92533      9.43801         0.155481      0.041801     -2.034438
O      13.22480     13.31684      9.45837         0.082993      0.374638     -1.978473
O       1.79083      5.69971      0.67188         0.472447     -0.347525     -1.050300
O       1.85500      5.76660     13.70960         0.120330     -0.024245     -1.225755
O      13.40671      5.68548      0.68679         0.097383      0.015916     -2.940458
O      13.45650      5.53860     13.73606        -0.251379      0.469523     -0.989532
O       1.82459      5.72351      4.95177        -0.002549      0.040045     -1.096416
O      13.32893      5.84368      4.91754         0.221382     -0.213971     -1.191163
O       1.76941      5.83840      9.34698         0.073448      0.003300     -0.970507
O      13.35410      5.62500      9.56127        -0.009819      0.238242     -1.451959
O       1.92162      9.41050      0.59617        -0.063097      0.658229     -1.649442
O       1.75170      9.51395     13.78305         0.460249      0.131171     -1.733208
O      13.43691      9.47685      0.66451         0.065059      0.275675     -1.852185
O      13.24136      9.51073     13.67781         0.119678      0.070777     -0.675863
O       1.80839      9.70847      4.97757         0.648642     -0.327177     -1.538069
O      13.29967      9.64616      4.96258         0.233324     -0.068683     -1.801607
O       1.81236      9.60915      9.29604         0.199199     -0.324875      0.642623
O      13.34009      9.49573      9.48199         0.070451      0.074409     -2.698171
O       5.76692      1.70417      0.73675        -0.080812      0.146982     -2.743129
O       5.65067      1.85440     13.62836         0.291565      0.138421     -1.020700
O       5.84152     13.28010      0.75728        -0.242438      0.091991     -2.834587
O       5.71465     13.35282     13.51296        -0.109282     -0.228622     -0.406836
O       5.76610      1.87642      5.03587        -0.146869      0.133864     -1.720111
O       5.61349     13.44287      4.92704        -0.314995      0.155119     -0.988785
O       5.63646      2.02276      9.34898         0.376867     -0.323579     -1.538775
O       5.67572     13.39472      9.30240        -0.200330     -0.129480     -0.636184
O       5.61661      5.67302      0.55168         0.314014     -0.004510     -1.217924
O       5.54510      5.69514     13.75281         0.412871      0.343825     -0.365553
O       5.76706      5.89650      5.03542         0.054327     -0.286253     -1.682784
O       5.66109      5.76566      9.34514         0.028711      0.211818     -2.301541
O       5.68767      9.53230      0.65849         0.061965      0.288226     -1.980865
O       5.64218      9.50939     13.58736         0.109693     -0.183779     -0.421633
O       5.67276      9.42244      4.89815         0.030504     -0.009725     -0.971260
O       5.69416      9.51821      9.36960        -0.072702     -0.060818     -0.877655
O       9.60844      1.69297      0.73802        -0.154736      0.295053     -2.680233
O       9.51389      1.92979     13.74516         0.037934      0.056505     -0.357674
O       9.50938     13.36293      0.70941        -0.141072      0.123808     -2.396633
O       9.46789     13.33367     13.66109        -0.158742      0.250461     -0.732244
O       9.52820      1.99261      5.01231         0.067424      0.240506     -1.787260
O       9.56929     13.09752      4.98508         0.016786      0.563719     -0.572363
O       9.52167      1.91518      9.39749         0.089068     -0.045952     -0.406978
O       9.44888     13.51105      9.41665         0.372947      0.054428     -2.824965
O       9.43458      5.70859      0.59653         0.252454      0.513803     -1.301828
O       9.52035      5.68757     13.78475        -0.119672     -0.307637     -2.399495
O       9.50157      5.52239      4.97518         0.106110      0.479174     -0.774183
O       9.68102      5.58552      9.38822         0.235441      0.416145     -0.477094
O       9.56365      9.41513      0.61704        -0.195486      0.139898     -0.825994
O       9.48877      9.53229     13.69938         0.006109      0.426606     -1.773900
O       9.58905      9.68626      5.04960         0.231086      0.073217     -2.218368
O       9.56758      9.48453      9.27492        -0.051374      0.233712     -0.512724
O       3.82308      1.89424      2.77685         0.774383     -0.424543      0.508190
O       3.85148      1.81355     15.81731         0.661093      0.314288      0.428466
O       3.79358     13.49655      2.65018        -0.489355     -0.349782      0.499324
O       3.77706     13.23979     15.65346         0.914909      0.333666      0.669178
O       0.05441      1.90618      2.82913        -0.344839      0.214070      0.156037
O       0.00932      1.87758     15.87945         0.546332     -0.332219      0.162607
O       0.03701     13.43224      2.60655        -0.550070     -0.165858      0.705058
O      15.24784     13.47209     15.86580         0.141580     -0.223666      0.228062
O       3.81722      2.02398      7.09553        -0.117385     -0.385584      0.572597
O       3.76383     13.44724      7.19546        -0.267339     -0.014366      0.353887
O      15.32944      1.96111      7.13502        -0.692586     -0.274119      0.523138
O      15.29003     13.40402      7.15919        -0.459569     -0.065048      0.675658
O       3.85541      1.77573     11.36061        -0.825673      0.543360      0.562395
O       3.80894     13.34319     11.42018        -0.377326     -0.167873      0.351127
O      15.35176      1.89602     11.36008         0.078232     -0.169554      0.776159
O      15.31537     13.41232     11.43532         0.064414     -0.293173      0.188394
O       3.82299      5.74063      2.75471         0.382439      0.069779      0.192394
O       3.76154      5.65124     15.85163        -0.058236      0.286492      0.438325
O      15.31277      5.65517      2.79618         1.004623      0.171554      0.238736
O      15.32923      5.72221     15.83921        -0.359801     -0.089084      0.258235
O       3.74172      5.86571      6.97513         0.242458     -0.193273      0.755521
O      15.25842      5.78450      7.11173        -0.369890     -0.064141      0.116199
O       3.82681      5.71035     11.44836        -1.337274      0.300810      0.207808
O      15.31221      5.67375     11.60844         0.291815      0.184345      0.037339
O       3.86560      9.54948      2.67048        -0.778739     -0.361418      0.471330
O       3.79811      9.58254     15.81697        -0.111898     -0.277602      0.005224
O       0.03105      9.53584      2.73881         0.115942      0.447717      0.107650
O      15.23846      9.60525     15.75578         0.062705     -0.427227      0.509450
O       3.79774      9.40856      7.05609         0.181080      0.302402      0.174777
O      15.29108      9.63181      7.02721         0.049403      0.128515      0.593239
O       3.84013      9.56855     11.43769        -1.606003     -0.373353      0.352015
O      15.26472      9.63865     11.50878         1.440383     -0.491623      0.381230
O       7.72209      1.89364      2.85724        -0.690823      0.285955     -0.153947
O       7.63666      1.84825     15.82269        -0.036514      0.112143      0.221023
O       7.63238     13.31207      2.79728        -0.045700      0.261851      0.543525
O       7.55502     13.37759     15.69961        -0.143005      0.190527      0.489599
O       7.64010      1.98884      7.05444        -0.256347     -0.126930      0.563013
O       7.55493     13.38063      7.07187         0.298453     -0.033096      0.230545
O       7.63077      1.85446     11.46522         0.121892      0.289735      0.400309
O       7.61557     13.41968     11.37240         0.022355     -0.052530      0.823917
O       7.64237      5.61557      2.68829        -0.158807      0.219259      0.364660
O       7.63782      5.73732     15.80185        -0.676257      0.070484      0.309230
O       7.65726      5.78232      7.14037         0.179042     -0.249977      0.151247
O       7.66025      5.63393     11.45737         0.346271      0.602470      0.607160
O       7.72044      9.60937      2.71689        -1.009363     -0.078574      0.306353
O       7.56260      9.53990     15.73146        -0.200070     -0.250494      0.452562
O       7.62665      9.61324      7.01555        -0.505665      0.187864      0.604319
O       7.62499      9.45276     11.27167         0.149558      0.089515      0.973079
O      11.56072      1.87470      2.85867         0.394273      0.196737     -0.122413
O      11.46946      1.95357     15.85897        -0.256362     -0.195061      0.223430
O      11.48985     13.48728      2.77129         0.195666     -0.277316      0.371444
O      11.39053     13.40383     15.69030         0.090796     -0.016166      0.568577
O      11.50348      1.91221      6.98811        -0.547866     -0.072387      0.577893
O      11.44431     13.48909      7.16031        -0.688837     -0.380198      0.006357
O      11.51027      1.94233     11.45974        -1.075885     -0.108102      0.954664
O      11.43212     13.46909     11.56841         0.133099     -0.335627     -0.072106
O      11.49708      5.81163      2.66233        -0.283132      0.071552      0.400869
O      11.43717      5.64965     15.79403         0.842997      0.162866      0.614280
O      11.48832      5.78059      7.04438         0.084107     -0.100687      0.447327
O      11.50785      5.64837     11.61225        -0.922706     -0.009980      0.335188
O      11.53259      9.53225      2.65469        -0.599655     -0.229624      0.627656
O      11.39933      9.56652     15.96557         0.300421      0.097725     -0.413859
O      11.47830      9.71670      7.11225         0.063361     -0.720000      0.539351
O      11.44599      9.58478     11.44819        -1.013461     -0.147454      0.432500
O       2.01551      3.74787      2.89642        -0.755942      0.893981     -0.268942
O       1.87765      3.72894     15.77148         0.165609      0.866810      0.557081
O       1.81261     15.32753      2.74391         0.729821      0.343494      0.131659
O       1.93613     15.29316     15.89502         0.099416      0.910034      0.248163
O      13.45746      3.84283      2.76975        -0.351543     -0.736760      0.467360
O      13.40621      3.75986     15.86090         0.089575      1.075505      0.603607
O      13.47893     15.29771      2.76728         0.160369      0.807747      0.456681
O      13.31790      0.00285     15.79840         0.452985     -0.775442      0.373299
O       1.82674      3.87049      7.07965        -0.031200      0.754062      0.311413
O       1.81015     15.35543      7.05007         0.251825     -0.003935      1.005985
O      13.40839      3.85267      6.96459        -0.282852      0.536650      0.533553
O      13.34716      0.00764      7.13833         0.469333     -0.393172      0.578697
O       1.86540      3.79959     11.46294         0.447410      0.430864     -0.004725
O       1.89304     15.32602     11.35743         0.155554     -0.510320      0.312866
O      13.43113      3.76413     11.59865        -0.247946     -0.123008      0.568902
O      13.35843     15.33423     11.52389         0.117020     -0.279809      0.146328
O       1.89250      7.62505      2.58253         0.139466      0.084036      1.150950
O       1.87606      7.64388     15.76311         0.179734      0.080196      0.671787
O      13.52368      7.67934      2.75202        -0.303538     -0.436528      0.470104
O      13.31830      7.62843     15.86198         0.173533     -0.076729     -0.144991
O       1.70682      7.70130      6.97811         0.159498     -0.317795      0.550464
O      13.37167      7.72581      6.97868        -0.178440     -0.257931      0.828915
O       1.75504      7.58471     11.48238         0.693804      1.934578      0.181356
O      13.34043      7.63121     11.50015         0.181840     -0.880830      0.715679
O       1.87344     11.51057      2.60669         0.665126     -0.121344      0.229977
O       1.67801     11.51967     15.69925         0.646863     -0.981045      0.905571
O      13.36366     11.48197      2.68680         0.413492     -0.009444      0.547492
O      13.28689     11.50334     15.72476         0.445505     -0.441352      0.547689
O       1.84923     11.47188      7.11942         0.577978     -0.230888      0.663725
O      13.24358     11.52779      7.13442         0.604998      0.078721      0.516222
O       1.87069     11.45777     11.45989         0.098104     -0.290587      0.473845
O      13.30374     11.44456     11.49058         0.260049      0.840562      0.450423
O       5.71010      3.75843      2.69111        -0.037828      0.421920      0.424825
O       5.78195      3.76846     15.69600        -0.254670      0.247827      0.721071
O       5.66826     15.32461      2.77553         0.640054     -0.347586      0.440789
O       5.73404     15.29063     15.63751        -0.370310     -0.433821      0.745883
O       5.67409      3.87727      7.15141         0.307212      0.263907     -0.240486
O       5.65139     15.34389      7.14028         0.047343      0.498955      0.117351
O       5.67326      3.83175     11.49603         0.356966     -0.674831      0.061071
O       5.69469     15.30453     11.44426         0.096469     -0.234801     -0.019690
O       5.85851      7.57795      2.59995        -0.427153      0.399122      0.581677
O       5.70672      7.60701     15.84641        -0.329548      0.562761      0.066483
O       5.78715      7.67768      7.10907        -0.384013      0.339822      0.547856
O       5.67868      7.55793     11.53684         0.235777      1.094018      0.257436
O       5.62737     11.44438      2.89423         0.324486     -0.292565     -0.365428
O       5.73560     11.44311     15.74186        -0.130171     -0.131454      0.068519
O       5.53690     11.48271      6.90664         0.178545     -0.014100      0.466387
O       5.77907     11.42367     11.45169        -0.128795      0.905404      0.232647
O       9.72952      3.82765      2.62383        -0.391113     -0.019614      0.627824
O       9.55885      3.80857     15.90269        -0.203674     -0.413973     -0.000571
O       9.55290     15.34073      2.90553         0.158058     -0.252808      0.091122
O       9.54236     15.33865     15.79228        -0.466963     -0.662348      0.086630
O       9.55955      3.81684      7.17289         0.205570      0.563924      0.138845
O       9.45350      0.00296      7.04001         0.376053     -0.534667      0.153185
O       9.49328      3.78691     11.51124         0.424167      0.483623      0.785411
O       9.52425     15.34724     11.57242         0.312772      0.267505     -0.027731
O       9.51558      7.62743      2.77720         0.058398      0.022382      0.131984
O       9.58238      7.68504     15.68139        -0.349542     -0.677324      1.085284
O       9.58291      7.67783      7.04316         0.109974     -0.255779      0.267928
O       9.55612      7.68465     11.48900         0.116628     -1.261377      0.081362
O       9.63744     11.47320      2.69159         0.093690     -1.072123      0.429002
O       9.43502     11.51245     15.76925         0.286245     -0.215959      0.368462
O       9.49630     11.53418      7.25662         0.610808      0.068263      0.025780
O       9.48512     11.53579     11.33993         0.201996     -1.266256      0.525848
