  # total energy = -7881.58426961 
CRSYTAL
PRIMVEC
    15.3600000000000000    0.0000000000000000    0.0000000000000000
     0.0000000000000000   15.3600000000000000    0.0000000000000000
     0.0000000000000000    0.0000000000000000    17.440000000000000
PRESSURE
-0.303992 -0.360664 -3.40334 -0.20163 -0.353624 -0.010417
PRIMCOORD
320 1
Pb       3.87074      3.79390      4.29781        -0.337700      0.564139     -0.276961
Pb       3.75942      3.86764     17.42539        -0.496244     -0.003093     -0.502065
Pb       3.85251     15.33017      4.30494        -0.172265     -0.370273     -0.281301
Pb       3.87296     15.28127      0.00898        -0.244570      0.070221     -1.063364
Pb       0.00080      3.85999      4.31329        -0.190367     -0.249928     -0.720291
Pb      15.24794      3.75402     17.35240         0.204335     -0.002808     -0.517593
Pb      15.33816      0.01711      4.40227         0.111203     -0.300159     -1.005143
Pb       0.15484      0.04424     17.37452        -0.273172     -0.413051      0.008435
Pb       3.93222      3.83431      8.66876        -0.544750      0.204173      0.004860
Pb       3.82182     15.32773      8.59957        -0.012774      0.018670     -0.191881
Pb       0.14568      3.79542      8.73581        -0.092249     -0.110051     -0.391215
Pb       0.04688     15.28656      8.67841        -0.052490      0.108684     -0.549729
Pb       3.88941      3.90198     13.11834        -0.439397     -0.282455     -0.628543
Pb       3.96991      0.09715     13.14827        -0.233537     -0.675743     -0.290417
Pb      15.34743      3.87250     12.97821        -0.087936     -0.145238      0.269092
Pb      15.33068     15.32081     13.09242        -0.102578      0.118720     -0.353695
Pb       3.78250      7.64756      4.36810         0.371485      0.123681     -0.345480
Pb       3.89548      7.72040     17.40311         0.055091     -0.234734     -0.465444
Pb      15.21249      7.61607      4.33409         0.150049     -0.043088     -0.809021
Pb       0.12160      7.56961      0.02452        -0.490577      0.178714     -0.510331
Pb       3.73642      7.70396      8.61493         0.139908     -0.352519      0.104395
Pb      15.32672      7.73615      8.64145         0.262490     -0.277712     -0.156421
Pb       3.88507      7.72954     13.05655        -0.150803      0.366382     -0.486150
Pb      15.25909      7.69596     12.97890         0.372764     -0.078785      0.249773
Pb       3.93020     11.44985      4.41641        -0.090391     -0.164453     -0.394744
Pb       3.68167     11.56298      0.01864        -0.084847     -0.142161     -0.609522
Pb      15.27515     11.37044      4.41706        -0.174285      0.237998     -0.800603
Pb       0.04875     11.44637      0.04979        -0.206129      0.073523      0.037369
Pb       3.86069     11.44859      8.64313        -0.175355     -0.134719     -0.117924
Pb       0.03407     11.63022      8.66830        -0.136804     -0.054506     -0.198098
Pb       3.76072     11.54556     13.06975         0.333534     -0.384698     -0.368215
Pb      15.24478     11.48500     12.95794        -0.122183     -0.124810      0.242820
Pb       7.58574      3.92172      4.24300         0.432289     -0.321980      0.317619
Pb       7.61859      3.78688      0.04965         0.421980     -0.079542     -0.622183
Pb       7.57180     15.26274      4.38222         0.038521     -0.046852     -1.144998
Pb       7.82381     15.28344      0.01279        -0.453501      0.262522     -0.300848
Pb       7.67075      3.86325      8.63575         0.281454     -0.040654      0.045221
Pb       7.68227      0.11401      8.72922        -0.154951     -0.209822     -0.004497
Pb       7.60690      3.72413     12.98971         0.347401      0.188316     -0.792606
Pb       7.65237     15.22616     13.12022         0.141155     -0.103455     -0.509444
Pb       7.69099      7.76615      4.39899        -0.329362     -0.651189     -0.204275
Pb       7.64326      7.65809     17.39342         0.071143     -0.082825     -0.856920
Pb       7.73875      7.53460      8.74808        -0.312889      0.368836     -0.513763
Pb       7.78287      7.69861     13.13823        -0.553097     -0.083822     -0.701986
Pb       7.63652     11.48217      4.35126         0.052101      0.528056     -0.525649
Pb       7.67132     11.42487     17.35800        -0.184814      0.014965     -0.233551
Pb       7.68851     11.54870      8.76114         0.118496     -0.287575     -0.560569
Pb       7.55200     11.47838     13.03611         0.251669      0.278426     -0.321533
Pb      11.53404      3.92407      4.33650        -0.344346      0.087272     -0.115831
Pb      11.43093      3.81396     17.41186        -0.158243     -0.041346     -0.392025
Pb      11.56370      0.04327      4.42966        -0.054686     -0.349413     -0.692350
Pb      11.57609      0.04601      0.01056        -0.229956     -0.334081      0.020363
Pb      11.60890      3.67099      8.68555        -0.579725      0.562274     -0.436253
Pb      11.52631      0.09229      8.72189        -0.083126     -0.382621     -0.202510
Pb      11.47255      3.84091     12.92897        -0.204480      0.265130      0.142423
Pb      11.48743     15.34791     13.12976        -0.252809     -0.171334     -0.780303
Pb      11.52304      7.63514      4.43751        -0.047671     -0.216062     -0.694955
Pb      11.46830      7.73822     17.34649        -0.102744     -0.095154     -0.005890
Pb      11.52554      7.65984      8.68969        -0.434234     -0.149614     -0.813003
Pb      11.58642      7.62200     13.13963        -0.141247     -0.078373     -0.674293
Pb      11.44385     11.56679      4.31910         0.202428     -0.241945     -0.611469
Pb      11.54713     11.52011     17.41377         0.268846     -0.162666      0.246301
Pb      11.47220     11.52400      8.68065        -0.111889     -0.099581     -0.457221
Pb      11.49586     11.57858     13.12314        -0.044987     -0.065768     -0.706594
Ti       1.83289      1.90328      2.34011        -0.523978     -0.580945      0.794439
Ti       1.88568      1.86807     15.31121        -0.635068      0.655979     -1.453342
Ti       1.90631     13.37474      2.44662        -0.792376      0.277176     -1.028887
Ti       1.81727     13.38779     15.19879         1.076854     -0.129788      1.507177
Ti      13.32410      1.84891      2.27055         0.582448      0.730434      0.475849
Ti      13.23416      1.83062     15.39113         2.189342      1.110098      0.824262
Ti      13.45217     13.37822      2.31771         0.282757     -0.714697     -0.445879
Ti      13.47835     13.40934     15.44109         0.000020     -0.816989     -1.329527
Ti       1.84606      1.87296      6.50068         0.159507     -0.182689     -0.298789
Ti       1.92940     13.35993      6.53243         0.509441      0.435409     -0.173094
Ti      13.41478      1.87678      6.57755         0.059614      0.435630      2.491778
Ti      13.32240     13.41124      6.64254         0.829662      0.137347     -0.376164
Ti       1.85328      1.90284     11.06579         0.452430      0.125749      0.162480
Ti       1.85566     13.43113     11.07656         0.299339     -0.019749      0.404430
Ti      13.35859      1.90444     10.97952         0.163772     -0.067535     -0.539937
Ti      13.35168     13.43044     10.94697         0.109005     -0.226487     -0.320215
Ti       1.86241      5.72608      2.32304         0.368673      0.307863     -0.856974
Ti       1.83117      5.68965     15.38139        -0.095589      0.227417      0.353166
Ti      13.36255      5.64444      2.12076         0.579065      0.704272      1.696234
Ti      13.34872      5.77271     15.35258         0.692479     -0.547349      0.143428
Ti       1.86986      5.63215      6.52225         0.945050      0.837152      0.237248
Ti      13.45584      5.74257      6.70580        -1.336530     -0.810946      0.051630
Ti       1.88341      5.75749     11.03669         0.372561     -0.258619     -1.555353
Ti      13.39465      5.76095     10.87533        -0.141517     -0.085099      1.534288
Ti       1.87741      9.60106      2.37305         0.352655     -0.269320     -0.693645
Ti       1.91641      9.55048     15.43940        -0.076727     -0.121102     -1.973814
Ti      13.33386      9.47341      2.33087         0.489747      0.594129     -0.296146
Ti      13.48389      9.57207     15.38547         0.691526      0.034502     -0.256849
Ti       1.78199      9.59741      6.67004         2.007405     -0.587414      0.200576
Ti      13.36172      9.59560      6.60804        -0.209607     -0.219560     -0.630925
Ti       1.81111      9.59804     11.03426         1.126815     -0.670388     -0.364979
Ti      13.30471      9.54069     10.93399         0.414342      0.548621      0.146658
Ti       5.62786      1.86083      2.25425         1.132115     -0.184805      0.723117
Ti       5.68234      1.99524     15.35023         0.462114     -1.849144      0.661292
Ti       5.65576     13.39974      2.09279         1.102249     -0.132648      2.282486
Ti       5.71670     13.39001     15.44557        -0.149264      0.477884     -1.752730
Ti       5.70265      1.90423      6.56107         0.122267     -0.416446      0.538823
Ti       5.79332     13.43257      6.68713        -0.480278     -0.614050     -0.758519
Ti       5.67038      1.82067     11.02030         1.046315      0.543257      0.093934
Ti       5.73827     13.40411     10.95172        -0.157644     -0.170213      0.650852
Ti       5.77205      5.77663      2.31444        -0.476200      1.466093     -0.160521
Ti       5.75160      5.64882     15.38422         0.200213      1.922341     -0.309990
Ti       5.74279      5.75207      6.62712        -0.105062      0.100363     -0.127466
Ti       5.71557      5.68493     10.98906         0.319714      0.794869     -1.450440
Ti       5.77208      9.54730      2.25525        -1.312861     -0.078933     -0.018920
Ti       5.71575      9.61329     15.33114         0.257414      0.049027     -0.229023
Ti       5.79142      9.54725      6.74661        -0.991763      0.241748     -0.861431
Ti       5.69717      9.59578     10.98269         0.133756     -0.568897      0.077095
Ti       9.52879      1.90231      2.41324        -0.309643      0.248958     -0.342262
Ti       9.54664      1.81127     15.26969        -0.921849      1.005428     -0.051071
Ti       9.60780     13.48611      2.21450        -0.715801     -0.471989      0.477514
Ti       9.59346     13.34377     15.46308        -0.547521      1.069129     -0.976746
Ti       9.52433      1.81773      6.59453         0.121186      1.398457      1.017039
Ti       9.59119     13.43673      6.61467        -0.612471     -0.692202      0.967412
Ti       9.56369      1.84852     10.99438        -0.716239      0.639742      0.581929
Ti       9.61661     13.39881     10.95224        -0.233468      0.226013      0.885314
Ti       9.58129      5.76090      2.24080         0.119906     -0.085755      0.046681
Ti       9.56985      5.58991     15.24683        -0.057546      0.873542      1.126564
Ti       9.57342      5.68859      6.63128         0.685590      0.458506      0.261812
Ti       9.51996      5.76682     10.96321        -0.173136     -1.638698     -0.331451
Ti       9.51571      9.58965      2.32328         1.513431      0.449151     -0.694489
Ti       9.65319      9.56188     15.31729        -0.951083     -0.521995      0.828632
Ti       9.57985      9.55558      6.58102        -0.464547     -0.389399      1.816114
Ti       9.58798      9.59303     10.96186        -0.929882      0.359750     -0.501281
O       1.75323      1.97674      0.60324         0.551854     -0.215663     -1.259738
O       1.84395      1.93041     13.45561         0.060263     -0.188986      1.602959
O       1.79763     13.29953      0.61649         0.397015      0.243185      0.773027
O       1.72496     13.39753     13.42366         0.340713     -0.098547      0.662569
O      13.22112      1.90824      0.48898         0.096698     -0.400511      0.056306
O      13.23149      1.77479     13.67318         0.155330     -0.127317     -1.006683
O      13.55545     13.36477      0.50780        -0.474544      0.305483      1.003214
O      13.53490     13.34342     13.56105        -0.627425      0.297382      1.592047
O       1.80076      1.85946      4.62087        -0.111354      0.035563      2.506653
O       1.99734     13.40042      4.73655        -0.358420      0.068970      1.064569
O      13.41691      1.93299      4.86015        -0.028481     -0.204367     -1.376250
O      13.25226     13.41863      4.85129         0.231513      0.295666      0.390286
O       1.86073      1.98304      9.27540        -0.091729     -0.374784      0.590086
O       1.66475     13.38965      9.30508         0.592017      0.023412      0.188471
O      13.28363      1.91636      9.15871         0.222503     -0.299635      1.591919
O      13.39226     13.39302      9.10787         0.053157     -0.188248      1.203492
O       1.85044      5.79065      0.43088         0.446826     -0.404387      1.852404
O       1.62078      5.65851     13.62905         0.698944      0.030907     -0.471717
O      13.41490      5.60991      0.40073        -0.339223      0.410453     -0.743444
O      13.37151      5.87517     13.57246         0.142087     -0.208655      0.268054
O       1.88065      5.69428      4.72033        -0.264670     -0.405304      0.948963
O      13.25102      5.72483      4.93980         0.795032     -0.081830     -0.303372
O       1.90053      5.63673      9.19582        -0.065761      0.131603      1.271898
O      13.33087      5.81158      9.14847         0.364387     -0.123925     -0.766117
O       1.91830      9.69361      0.50014        -0.071689     -0.694641      1.559169
O       1.92730      9.59727     13.58853         0.077842     -0.242768      1.410068
O      13.55401      9.49338      0.57386        -0.527313      0.202310     -0.328179
O      13.43173      9.55362     13.55386        -0.205441      0.073908      1.326451
O       1.88266      9.75012      4.91935        -0.137082     -0.752411     -0.032404
O      13.32467      9.51615      4.75663         0.228575     -0.135761      1.647665
O       1.88289      9.55445      9.21570        -0.537608      0.020157      0.666317
O      13.32663      9.44911      9.12792         0.137056      0.296073      0.869444
O       5.68420      1.91546      0.50716        -0.218015      0.095047     -0.553136
O       5.68052      1.99822     13.57820        -0.073946     -0.126295      0.037427
O       5.72219     13.50636      0.35069        -0.439023      0.054184     -0.215328
O       5.81437     13.40190     13.53793         0.037756     -0.226871      1.585136
O       5.75664      1.87810      4.76887        -0.438813      0.108280      0.941221
O       5.82625     13.50514      4.82998        -0.195725     -0.395811      1.404153
O       5.66221      1.69880      9.25578        -0.057953      0.209245     -0.029414
O       5.65020     13.43970      9.15113         0.358231     -0.019014      1.098727
O       5.83481      5.89668      0.47967        -0.208612     -0.363581      0.747006
O       5.71875      5.60489     13.59613         0.156430      0.051280      0.334756
O       5.77054      5.73857      4.81013        -0.181893     -0.044852      1.172568
O       5.71254      5.77068      9.10137         0.038316     -0.667358      1.849952
O       5.77208      9.41852      0.46339         0.108839      0.145979      0.632086
O       5.67520      9.65563     13.51447         0.105021     -0.170480      0.693612
O       5.67309      9.55832      4.92222         0.221622      0.259416      0.748973
O       5.65188      9.62141      9.20284         0.188387      0.079395      0.076192
O       9.70081      1.95471      0.62885        -0.338391     -0.132014     -0.016203
O       9.61932      1.73133     13.49328        -0.022521      0.185817      0.636622
O       9.60895     13.44591      0.39633        -0.052002      0.252027      0.634655
O       9.47089     13.56807     13.66490         0.434836     -0.653864      0.849746
O       9.38546      1.89833      4.86097         0.555773     -0.531506     -0.073437
O       9.56617     13.53766      4.86177        -0.104761      0.094077      0.117870
O       9.56459      1.82047      9.21939         0.182586      0.185340     -0.354790
O       9.62509     13.24713      9.21450         0.106714     -0.274893     -1.056572
O       9.65900      5.66006      0.41784        -0.413434      0.216873      1.932916
O       9.62409      5.59099     13.49601        -0.385196      0.671381     -0.443172
O       9.57363      5.79752      4.87137         0.143715     -0.137891     -0.730075
O       9.31112      5.73379      9.10769         0.912326      0.215263      1.829641
O       9.67977      9.55784      0.52134        -0.656896      0.283321      0.637563
O       9.60923      9.47698     13.56342         0.082896      0.273542      0.242423
O       9.59238      9.61807      4.83846        -0.124248     -0.375598     -1.038520
O       9.54281      9.56211      9.06154         0.342291      0.360876      2.469954
O       3.72916      1.78902      2.67271         0.759652      0.762785      0.020766
O       3.77853      1.96652     15.72392         0.584808      0.217622      0.323710
O       3.77478     13.44852      2.68627         0.694663      0.087502     -0.287946
O       3.73945     13.41293     15.76167        -0.588066     -0.373235     -0.088687
O      15.24205      1.98331      2.68229        -0.541046     -0.406897      0.061272
O      15.34813      1.84538     15.75699        -0.357182      0.061587      0.008697
O      15.32736     13.25956      2.82144        -0.762929      0.408290      0.078938
O       0.03096     13.56756     15.73498         0.068348     -0.415131     -0.124411
O       3.75284      1.81301      6.94552         0.560501      0.234197     -0.283004
O       3.83726     13.39500      7.01795        -0.810615      0.429522     -0.043877
O      15.29021      1.89724      7.07400         0.785254     -0.318237     -0.526205
O       0.05710     13.37649      7.01879        -0.748194     -0.088948     -0.170926
O       3.81674      1.92114     11.41786        -0.672617     -0.491980      0.116405
O       3.88876     13.41145     11.48253        -1.003700      0.037720     -0.634841
O      15.29250      1.85231     11.43499        -0.796214      0.069014     -0.298571
O      15.23369     13.42953     11.39084         0.014773     -0.273448     -0.231990
O       3.83052      5.87195      2.73707        -0.474039     -0.305360     -0.484578
O       3.87308      5.75454     15.69929        -0.224832     -0.467922      0.329930
O      15.31327      5.68924      2.60396        -0.426357     -0.314063      0.212008
O      15.28656      5.72424     15.81065        -0.033505     -0.156071      0.037243
O       3.80184      5.60307      6.89573        -0.156722     -0.202969      0.090069
O      15.35662      5.59566      6.98442        -0.045765      0.245379      0.018804
O       3.83056      5.52186     11.38704        -0.301620      0.928469      0.204571
O      15.34081      5.83546     11.27349        -0.901309     -0.299454      0.182760
O       3.84822      9.49144      2.69557        -0.935730     -0.225934      0.003882
O       3.84676      9.61141     15.78571        -0.550799     -0.174359      0.195612
O      15.27326      9.55472      2.80133         0.955872      0.258042      0.067907
O       0.06943      9.58293     15.78589        -1.224278     -0.309650     -0.027311
O       3.76570      9.53843      7.18137        -0.200525     -0.024743     -0.438371
O      15.29026      9.59752      7.04136        -0.097098     -0.220192     -0.019457
O       3.81280      9.62066     11.45968         0.033119     -0.059186     -0.128513
O      15.29048      9.57924     11.40505        -0.362185     -0.228899     -0.497953
O       7.52376      1.95587      2.70846        -0.098692      0.104102     -0.409340
O       7.59964      1.92583     15.76545         0.478565     -0.236713     -0.022325
O       7.66236     13.44448      2.60701        -1.028968     -0.279087     -0.183135
O       7.58157     13.39110     15.87623         1.039661      0.243161     -0.047768
O       7.64979      1.92659      7.08415        -0.397088     -0.864016     -0.301428
O       7.64154     13.34508      7.14067         0.404230      0.204167     -0.418523
O       7.67783      1.84170     11.41874        -0.526004      0.134390     -0.055977
O       7.83046     13.27956     11.31734        -2.829162      0.609807      0.257433
O       7.65066      5.80638      2.79565         0.576643     -0.302484     -0.854823
O       7.72949      5.65175     15.80640        -0.628240      0.521980     -0.198493
O       7.68521      5.69954      7.00350        -1.538785     -0.123151     -0.018791
O       7.57151      5.64569     11.41413         0.437759      0.169584      0.010177
O       7.59412      9.62169      2.75202         0.675344      0.528959     -0.095852
O       7.62958      9.67208     15.72107         0.976275     -0.076429     -0.039174
O       7.62323      9.56208      6.98394        -0.049769      0.047159      0.023738
O       7.69532      9.60759     11.35562        -0.189813     -0.247605      0.147444
O      11.42437      1.92005      2.86770         0.417733     -0.516550     -0.232204
O      11.41179      1.90003     15.77225         0.057178     -0.637414      0.148227
O      11.46462     13.45184      2.66051        -0.249061      0.391106     -0.072230
O      11.49302     13.26981     15.69820         0.483172      0.808370      0.006222
O      11.52095      1.75478      7.06164        -1.123682      0.384817     -0.533699
O      11.47273     13.38395      7.06390        -0.505044     -0.131263     -0.148846
O      11.45734      2.06574     11.45489         0.525121     -1.258923     -0.504126
O      11.43656     13.29758     11.42623         1.382190      0.355940      0.309179
O      11.49400      5.73037      2.70712        -0.923443      0.106472     -0.372330
O      11.45262      5.84985     15.70609         0.641387     -0.373147     -0.039668
O      11.50562      5.77161      6.96460        -0.270572     -0.083631      0.648882
O      11.50707      5.77653     11.30686        -0.696312      0.112916     -0.086890
O      11.48304      9.51170      2.66071        -1.024429      0.058182      0.216605
O      11.57700      9.70131     15.85924        -0.350588     -0.516887     -0.672269
O      11.52379      9.51180      7.04613        -0.413141      0.108941     -0.291011
O      11.45447      9.44049     11.42701        -0.331623      0.327822     -0.416851
O       1.89394      3.79493      2.74219         0.339697      0.913321     -0.186572
O       1.93005      3.79334     15.78337        -0.198246      0.001894      0.222690
O       1.79319     15.30476      2.68007        -0.290123      0.054470      0.158047
O       1.95431      0.01604     15.67603        -0.044426     -0.790526      0.157167
O      13.28677      3.79067      2.56254         0.110177      0.114369      0.415328
O      13.42360      3.77887     15.72300        -0.514774      0.044854     -0.167141
O      13.34603     15.32425      2.70624         0.224952      0.117682      0.034252
O      13.42348     15.25554     15.89024        -0.708048      0.968278     -0.254018
O       1.88488      3.70471      7.00387        -0.140156      0.359789     -0.308357
O       1.84799     15.33106      7.00670        -0.068644     -0.010028     -0.213460
O      13.34892      3.73096      7.15102         0.103935      0.688139     -0.622080
O      13.38249     15.28790      7.02130         0.365256      0.186067     -0.207276
O       1.79291      3.84456     11.47067        -0.080778     -0.390006     -0.214231
O       1.80669     15.28545     11.47365         0.373676      0.373838     -0.476368
O      13.31190      3.82520     11.37409         0.949033      0.396408     -0.408564
O      13.23197     15.33966     11.33677         0.156970     -0.077723     -0.029655
O       1.76570      7.60647      2.83368         0.240304      0.747611     -0.528530
O       1.87931      7.56382     15.71178         0.316167      1.234929      0.422136
O      13.40750      7.57199      2.62743         0.043962     -0.488635      0.369526
O      13.48160      7.70132     15.78615        -0.429451     -0.087678     -0.153042
O       1.91971      7.55394      6.96680        -0.629900      0.460193     -0.057414
O      13.39018      7.62337      7.05001         0.692085      0.512512     -0.106602
O       1.96565      7.66296     11.44130        -0.026063     -0.292338     -0.025689
O      13.35189      7.69480     11.43023         0.392601     -0.613126     -0.379281
O       1.94541     11.42915      2.83444        -0.143517     -0.222660     -0.356082
O       1.83240     11.46604     15.84945         0.309236      1.162061     -0.727943
O      13.25136     11.44635      2.69427         0.471119      0.833203      0.094417
O      13.54068     11.52805     15.86535        -0.040258     -0.391469     -0.345190
O       1.99907     11.48339      7.02255        -0.818842      0.346751      0.146277
O      13.39566     11.48939      6.86393         0.002359     -0.409817      0.527644
O       1.87350     11.41730     11.50641        -0.132639      1.450329     -0.500087
O      13.29270     11.46512     11.33789         0.224729     -0.069099     -0.101835
O       5.61059      3.96268      2.71003         0.199644     -1.652562     -0.525429
O       5.83580      3.83626     15.84627        -0.768685     -0.381351      0.135086
O       5.59351     15.31090      2.56038         0.447150      0.140939      0.043564
O       5.54039     15.28866     15.58659         0.447698      1.372310      0.545788
O       5.74486      3.73008      7.19529        -0.159675      0.044439     -1.174481
O       5.67707     15.29649      7.04104         0.483935      1.065851     -0.177868
O       5.73808      3.73478     11.38710         0.083291      0.296428     -0.060170
O       5.79369     15.30589     11.52584        -0.149296     -0.332123     -0.361647
O       5.82395      7.70692      2.82094        -0.288281     -0.267967     -0.424699
O       5.76156      7.73475     15.64113         0.191898     -0.944115      0.306499
O       5.63427      7.58390      7.06671         0.366309      0.371796     -0.332961
O       5.75632      7.66845     11.29902        -0.397560     -0.520895      0.544715
O       5.51551     11.52570      2.56644         0.998307     -0.198225     -0.098068
O       5.69218     11.53385     15.88157        -0.006093     -0.675130     -0.200357
O       5.58668     11.48229      7.05801         0.789412      0.042502     -0.149985
O       5.78324     11.51266     11.42582        -0.048365      0.287889     -0.420992
O       9.49271      3.81652      2.73807         0.196303      1.148901     -0.186518
O       9.61679      3.77935     15.64579         0.059000     -0.731264      0.275878
O       9.34812      0.03468      2.63775         0.917307     -0.878128      0.043038
O       9.50132      0.01220     15.76646         0.458034     -0.664678      0.365011
O       9.55596      3.81095      6.99031         0.342258     -1.286224      0.065959
O       9.53551     15.27654      7.23382         0.029758      0.323578     -1.126003
O       9.52526      3.81492     11.39042         0.127561      0.457251     -0.071572
O       9.57041     15.33917     11.30330         0.597857     -0.755335      0.156438
O       9.51110      7.73809      2.61487        -0.102598     -1.310760      0.142141
O       9.57657      7.67636     15.67008         0.025240      0.536839      0.031110
O       9.46175      7.63576      6.99916         0.484386      0.422491      0.035929
O       9.40740      7.55810     11.45230         0.539808      1.132781     -0.417640
O       9.52892     11.56164      2.77695         0.164935     -0.186750     -0.382106
O       9.59571     11.51737     15.84932        -0.327683     -0.894326     -0.388034
O       9.49209     11.41551      6.86834         0.501355      1.455161      0.586819
O       9.55697     11.45553     11.58481         0.861578     -0.904360     -0.828094
