  # total energy = -7867.12039785 
CRSYTAL
PRIMVEC
    15.010000000000000    0.0000000000000000    0.0000000000000000
     0.0000000000000000   15.010000000000000    0.0000000000000000
     0.0000000000000000    0.0000000000000000    16.400000000000000
PRESSURE
17.0937 17.3851 9.26617 -0.119002 -0.071398 0.059929
PRIMCOORD
320 1
Pb       3.82053      3.77095      4.29054        -0.573932     -0.411666     -0.514646
Pb       3.78303      3.76669      0.14340         0.083689     -0.555528     -0.649637
Pb       3.70780      0.05833      4.11446        -0.126622     -0.034464      0.322256
Pb       3.64778      0.00076      0.01825         0.285072     -0.037342     -0.483051
Pb       0.02005      3.70454      4.05442        -0.033557     -0.223556     -0.040926
Pb       0.05228      3.82400     16.39021        -0.063938     -0.357910     -0.070796
Pb       0.08912     14.96594      4.04707        -0.553610      0.367439      0.216098
Pb      14.94217      0.02436     16.39698         0.436799     -0.167419     -0.153018
Pb       3.86238      3.74812      8.25758        -0.811766      0.021289     -0.296621
Pb       3.76521     14.82595      8.29509         0.056673      0.075404     -0.722109
Pb       0.13934      3.77247      8.24828        -0.511598     -0.247482     -0.184513
Pb       0.10116     14.96527      8.28495        -0.536539     -0.045125     -0.400442
Pb       3.70171      3.78296     12.27570         0.311669     -0.432890     -0.150627
Pb       3.76496     14.96419     12.42103         0.012196      0.236716     -0.620005
Pb       0.06625      3.75486     12.26785        -0.294149     -0.717163     -0.284744
Pb       0.01254      0.00021     12.33350        -0.328666      0.451764     -0.640381
Pb       3.61590      7.44065      4.13509         0.644490      0.629123     -0.130181
Pb       3.69817      7.39046      0.13181        -0.102121      0.712031     -0.395312
Pb      14.84058      7.47234      4.08832         0.284650     -0.004548      0.057244
Pb      14.91514      7.55518     16.38856         0.256344     -0.422368     -0.318165
Pb       3.73523      7.46053      8.19812        -0.203831     -0.065649     -0.457217
Pb      14.94265      7.46034      8.22738         0.044851     -0.020352     -0.647466
Pb       3.75287      7.53597     12.31868        -0.169980     -0.360313      0.256123
Pb       0.04584      7.45860     12.34036        -0.518330     -0.092020     -0.064586
Pb       3.59758     11.39062      4.09275         0.231139     -1.284601      0.571877
Pb       3.69153     11.25933     16.33753        -0.170596     -0.151164      0.240840
Pb      14.90126     11.33155      4.08064         0.063323     -0.080134     -0.242650
Pb      14.87674     11.23543     16.37965         0.237253      0.439187      0.040944
Pb       3.69221     11.19860      8.31190        -0.040101      0.231368     -0.839866
Pb      14.92545     11.18206      8.29469         0.280669      0.583255     -1.094611
Pb       3.68347     11.29328     12.36995         0.441341     -0.076015     -0.214418
Pb      14.96573     11.27018     12.34975        -0.265951     -0.178649     -0.337823
Pb       7.54439      3.61012      4.22332        -0.255863      0.469391     -0.629410
Pb       7.52279      3.76569      0.02820         0.027131     -0.384509      0.110562
Pb       7.48159      0.03683      4.18406        -0.032482     -0.360439      0.084083
Pb       7.49235      0.10325      0.07421        -0.113745     -0.343974     -0.396030
Pb       7.56373      3.71499      8.22563        -0.008007     -0.157766     -0.077194
Pb       7.56774     14.87191      8.30400        -0.593411      0.183533     -0.968671
Pb       7.60549      3.69565     12.27747        -0.497561     -0.065963     -0.117239
Pb       7.56222     14.97038     12.44553        -0.448619     -0.169075     -0.286772
Pb       7.38234      7.55058      4.15853        -0.072631     -0.067414     -0.411156
Pb       7.47122      7.51805      0.08626         0.278884     -0.119813     -0.026721
Pb       7.43115      7.54842      8.26994         0.453036      0.091736     -0.640323
Pb       7.48309      7.40094     12.43075         0.286046      0.427251     -0.194902
Pb       7.36035     11.32243      4.07956         0.746755     -0.309389      0.176172
Pb       7.51026     11.23051      0.04775        -0.077688      0.235410     -0.277757
Pb       7.34773     11.16931      8.33771         0.547317     -0.053286     -0.601730
Pb       7.48329     11.14629     12.44460        -0.025222      0.197559     -0.098020
Pb      11.24205      3.70463      4.10363         0.076151      0.018051      0.243977
Pb      11.22645      3.73524      0.00103        -0.289356     -0.061478     -0.178488
Pb      11.20737      0.06776      4.16588         0.603408     -0.397932     -0.088472
Pb      11.17558      0.04166      0.08186        -0.038309     -0.220505     -0.569412
Pb      11.29547      3.77415      8.17171         0.303424     -0.267511      0.012541
Pb      11.24106     14.91497      8.27701         0.279473     -0.061577     -0.803513
Pb      11.33529      3.75922     12.30408         0.083002     -0.396863     -0.425333
Pb      11.30341      0.06447     12.27626        -0.042652     -0.498056     -0.004630
Pb      11.17572      7.46269      4.12558        -0.250261     -0.097320     -0.070855
Pb      11.21311      7.53651      0.07891        -0.197614     -0.358121     -0.709899
Pb      11.20279      7.51796      8.19564         0.026847     -0.168285     -0.512064
Pb      11.36943      7.49171     12.31869        -0.181228     -0.299439      0.163281
Pb      11.19892     11.25504      4.14161        -0.020849      0.669101     -0.157793
Pb      11.24880     11.20669      0.04083        -0.054901      0.422794     -0.550810
Pb      11.10757     11.09653      8.24710        -0.071272      0.673223     -0.469812
Pb      11.30621     11.22638     12.29403        -0.572100      0.170096      0.030992
Ti       1.91054      1.87043      2.06504        -0.434924      0.586268      0.156452
Ti       1.88331      1.89152     14.37900         0.322123     -0.682450     -0.420789
Ti       1.82098     13.10636      1.98983        -0.637773     -0.295965     -0.363411
Ti       1.77834     13.09460     14.33167         0.141057      1.169546      1.465215
Ti      13.10859      1.84711      1.99664         0.868370      0.024859      0.538670
Ti      13.18930      1.82678     14.42285        -0.496898      0.092345     -0.813271
Ti      13.05018     13.17504      1.97034         1.018418     -0.610000      1.480513
Ti      13.05235     13.13468     14.23597         0.106461     -0.461901      1.334204
Ti       1.82048      1.80765      6.22864         1.122484      0.374895      0.073990
Ti       1.86830     13.07301      6.19243        -0.269328      0.573256      0.886326
Ti      13.19860      1.87136      6.14089        -0.365793     -0.106025      1.820857
Ti      13.12168     13.19059      6.11481         0.474781     -0.442843      0.888306
Ti       1.87720      1.79944     10.28865        -0.363522      0.680755      1.133985
Ti       1.76207     13.11196     10.32564         0.746501     -0.068154      0.011819
Ti      13.05741      1.77618     10.16395         2.366298      0.865203      1.113341
Ti      13.05658     13.05437     10.18619         0.053183      0.984433      0.542203
Ti       1.82035      5.63476      2.08036         0.197424     -0.695422      1.547713
Ti       1.89299      5.65752     14.44761        -0.212262     -0.366058     -0.959557
Ti      13.04942      5.54528      2.02676         0.759023      0.155266      0.714032
Ti      13.09285      5.54239     14.39157         0.778882      1.595290      0.411727
Ti       1.80354      5.61924      6.09449         1.204348     -0.484794      0.580034
Ti      13.13679      5.56941      6.10026        -0.468269     -0.316134      0.859968
Ti       1.89683      5.64231     10.34157         0.647157     -0.772377     -0.883206
Ti      13.17062      5.51914     10.29594        -1.040223      0.325568     -0.416094
Ti       1.64306      9.34755      2.05061         1.965152      0.464599      0.878845
Ti       1.83464      9.38245     14.20272         0.910372     -0.579847      2.016604
Ti      12.98657      9.33154      2.12691         0.491719      0.878432     -0.131151
Ti      13.16621      9.37110     14.41799        -0.689735     -0.579539     -1.047055
Ti       1.78724      9.33993      6.10325         0.247622      0.733183      1.027824
Ti      13.07497      9.39679      6.15278         0.645371      0.027209      1.059836
Ti       1.81533      9.36887     10.20779         0.312491      0.105261      0.069405
Ti      13.14333      9.35799     10.25016        -0.116002     -0.671116      1.222049
Ti       5.60854      1.79419      2.08629        -0.253139      0.979351      0.156201
Ti       5.60795      1.87629     14.31149         0.463781      0.760734      0.701057
Ti       5.60943     13.11245      2.14332         0.048374      0.995619     -1.180411
Ti       5.60100     13.13859     14.43506         0.910152     -0.319325     -0.054292
Ti       5.59708      1.78458      6.24790         0.614653     -0.878446      0.923140
Ti       5.65110     13.10150      6.14273        -0.270155     -0.022342      1.289358
Ti       5.62362      1.78195     10.18193         0.026941      0.289081      1.957777
Ti       5.62324     13.03132     10.37071        -0.622634      0.819501     -0.006969
Ti       5.64878      5.53073      2.04483         0.219540      0.319702      1.308012
Ti       5.66652      5.64928     14.40624        -0.537225     -1.298771     -0.552578
Ti       5.59945      5.53025      6.18577         0.197410      1.002407      0.647784
Ti       5.68520      5.58289     10.32239        -0.641727     -0.740641     -0.151617
Ti       5.48200      9.39975      2.10569         0.284904     -0.984967      0.510124
Ti       5.56521      9.34450     14.51668         0.197181      0.721667     -1.054855
Ti       5.58033      9.33035      6.22579        -0.681019      0.738010      0.247111
Ti       5.59734      9.28956     10.40643         0.133349      0.454255     -0.399789
Ti       9.36304      1.80943      2.16815        -0.607384      1.148382     -0.785764
Ti       9.43581      1.84391     14.33612        -0.500676      0.087551     -0.466561
Ti       9.36329     13.16165      2.03083        -0.030759     -0.567228      2.001675
Ti       9.35245     13.12872     14.41538         0.773454     -0.058675      0.667677
Ti       9.41000      1.84998      6.24360        -0.626580      0.018844      0.507780
Ti       9.45452     13.16109      6.10878        -1.078811     -1.332547      0.819312
Ti       9.33279      1.76696     10.30439         0.316371      1.065246     -0.662562
Ti       9.30500     13.07260     10.23033         0.774906     -0.776249      0.620288
Ti       9.36093      5.60645      2.09995        -0.672378      0.169226      0.197614
Ti       9.40107      5.54110     14.36739         0.014147      1.199246      0.669031
Ti       9.36280      5.61548      6.17116         0.179546      0.925224     -0.073682
Ti       9.37340      5.62090     10.18110         1.259416     -1.172308      0.799044
Ti       9.29263      9.42051      2.09941        -0.544613      0.173265      0.984824
Ti       9.44863      9.35262     14.40831        -0.671121      0.759770      0.615095
Ti       9.32170      9.41594      6.10906        -0.363948     -0.588041      0.769410
Ti       9.38289      9.28829     10.43655        -0.912480      1.248983     -1.323290
O       1.99286      1.93694      0.24668        -0.119964     -0.338877      0.083901
O       1.78412      1.78103     12.51943         0.686642      0.453531      0.976277
O       1.81103     13.05575      0.14762         0.032529      0.091141      0.375260
O       1.79897     13.10498     12.55800         0.265304      0.036951     -1.536942
O      13.12100      1.77664      0.18705         0.019547      0.185477      0.062863
O      13.13140      1.81121     12.60250        -0.033400      0.206784      0.290111
O      13.29246     13.20677      0.21276        -0.350973     -0.117499     -0.583229
O      13.05274     13.07404     12.44591         0.164872      0.002179     -0.022885
O       1.80370      1.78396      4.39675         0.326783      0.207577     -0.727560
O       1.87785     13.11841      4.37332        -0.102436      0.022208     -0.734103
O      13.21447      1.86404      4.38707        -0.191420      0.097819     -1.666278
O      12.97873     13.24966      4.30642         0.450932     -0.688648     -0.431628
O       1.68624      1.93733      8.54203         0.775850     -0.276344     -1.533550
O       1.89354     13.10207      8.52302         0.122940     -0.220886     -0.659680
O      13.29774      1.86233      8.42607        -0.647571     -0.068762     -0.685647
O      13.16594     13.11016      8.40471        -0.663719      0.018345     -0.173173
O       1.82823      5.67895      0.30489        -0.053043     -0.154385     -1.808438
O       1.94773      5.68286     12.58162        -0.281093     -0.410058      0.073395
O      13.17945      5.59233      0.21301        -0.393536     -0.135240      0.472257
O      13.01570      5.72589     12.60249         0.576790     -0.634818     -1.006265
O       2.06641      5.59342      4.27646        -0.747758     -0.173017      0.097051
O      13.05876      5.55233      4.29923         0.081763      0.107299     -0.164166
O       1.96748      5.63851      8.48695        -0.344713      0.055195      0.310051
O      13.08067      5.55600      8.48463         0.211160      0.213238      0.231876
O       1.82182      9.29992      0.28865        -0.174095      0.077245     -0.435753
O       1.88903      9.41245     12.43239        -0.105119     -0.379726     -0.271681
O      12.95215      9.32045      0.29665         0.706423      0.056223     -0.297952
O      13.17412      9.31508     12.56064        -0.235215      0.203758      0.221875
O       1.73414      9.44049      4.32745         0.038073     -0.148526     -1.049983
O      13.12145      9.45457      4.36163        -0.202241     -0.443648     -0.880875
O       1.75416      9.32183      8.38025         0.260894     -0.007678      0.734857
O      13.27769      9.39425      8.46365        -0.878329     -0.395493     -0.221818
O       5.57443      1.83930      0.30830        -0.048725     -0.282059     -1.582369
O       5.59946      1.86695     12.54439        -0.085474      0.059277     -0.074161
O       5.55227     13.08074      0.26702         0.140078      0.227455      0.361004
O       5.68313     12.93641     12.59962        -0.138625      0.553847     -0.556933
O       5.54871      1.78293      4.42816         0.518938      0.167405     -0.816996
O       5.52001     13.22041      4.33309         0.045934     -0.510778     -0.542518
O       5.71560      1.80872      8.41780         0.075957      0.212856     -0.534957
O       5.61591     13.09732      8.53765        -0.044949     -0.156488      0.087418
O       5.74042      5.67676      0.26163        -0.461857      0.042927     -1.025178
O       5.87510      5.69201     12.53714        -0.991642     -0.396249      0.366528
O       5.60117      5.38715      4.39306         0.142177      0.496486     -1.231345
O       5.51873      5.56066      8.48235         0.547417      0.280250     -0.054370
O       5.67950      9.36337      0.30605        -0.654011     -0.029289     -0.955518
O       5.58594      9.32729     12.60599         0.028878      0.082166     -0.217896
O       5.71162      9.39868      4.45318        -0.310479      0.146860     -1.381709
O       5.72220      9.22430      8.52980        -0.310476      0.315617     -0.326729
O       9.30223      1.81264      0.30627         0.431088      0.100796     -0.344825
O       9.50547      1.77977     12.42558        -0.283257      0.422668      0.926646
O       9.21895     13.19512      0.30995         0.343620      0.072638     -2.339203
O       9.44654     13.24077     12.65912        -0.097066     -0.330641     -1.597817
O       9.29162      1.82944      4.36352         0.212347      0.056684     -0.532796
O       9.43838     13.12839      4.31507         0.183770      0.242081     -0.217261
O       9.23469      1.90001      8.42011         0.515855     -0.480235      0.304800
O       9.39044     13.08232      8.41068         0.060135      0.054842      0.444502
O       9.39235      5.48215      0.31557         0.300058      0.259169     -1.493402
O       9.42958      5.55484     12.58316        -0.377605      0.125990     -0.639911
O       9.42558      5.77804      4.30986        -0.461792     -0.692043      0.327316
O       9.54585      5.49361      8.39128        -0.677062      0.745939     -0.087376
O       9.45587      9.56596      0.32621        -0.124307     -0.500648     -1.434823
O       9.47057      9.44244     12.62574        -0.329528     -0.454886     -1.045751
O       9.27881      9.31648      4.29034         0.232218      0.136726      0.178945
O       9.29028      9.29197      8.54749         0.360271      0.336742      0.481073
O       3.75408      2.11121      2.34476        -0.586727      0.032414      0.431049
O       3.77737      1.59627     14.60654        -0.118665      0.145764     -0.136855
O       3.62831     12.73928      2.30126         0.722861      0.912549     -0.493343
O       3.77415     13.30809     14.48977        -0.772488      0.102121      0.457749
O       0.02550      1.72254      2.23188        -0.448845     -0.524755      0.265012
O       0.02526      2.01603     14.74673         0.023947      0.162886     -0.077301
O      14.96698     13.38933      2.37036         0.100180     -0.385336     -0.224304
O      14.96388     12.83916     14.47402         0.068549      0.365192      0.333426
O       3.76248      1.83118      6.50052        -0.655590      0.057896      0.146517
O       3.72563     13.05467      6.50893         0.464961     -0.111787     -0.041875
O       0.02290      1.72638      6.46689        -0.778593      0.040687     -0.022359
O      14.98322     13.21621      6.47152        -0.005773     -0.146635     -0.404306
O       3.78298      2.04886     10.48384        -0.523024      0.136766      0.051875
O       3.74104     12.86896     10.58630        -0.125032      0.163603      0.045554
O       0.02667      1.68880     10.61678        -0.995902     -0.035069      0.030456
O      14.94664     13.39630     10.42226        -0.085746     -0.624403      0.610618
O       3.77950      5.33497      2.15143        -0.416094      0.238442      0.539807
O       3.74495      5.82109     14.59101         0.483514      0.333359      0.496189
O      14.94756      5.77854      2.41888        -0.115808      0.005773     -0.293776
O      15.00074      5.53779     14.59824         0.388914     -0.928847      0.332745
O       3.71049      5.49263      6.42580         0.501367     -0.065455      0.159864
O       0.01213      5.67318      6.43101        -0.272668      0.326155     -0.014796
O       3.78742      5.36156     10.53668        -0.046885      0.116808      0.409523
O       0.03145      5.74089     10.56376        -0.855908      0.226469      0.252444
O       3.66461      9.53109      2.34816        -0.434856      0.410526      0.032450
O       3.68653      9.12702     14.67113         0.032304      0.098589      0.093805
O      14.85677      9.05509      2.36364         0.511745     -0.025241     -0.188970
O       0.03675      9.53238     14.61715        -0.245138      0.013705      0.188121
O       3.68287      9.40260      6.47014         0.807061      0.258718      0.166376
O      14.96663      9.28371      6.47241        -0.254764     -0.213385     -0.159198
O       3.70865      9.60920     10.42892         0.263123     -0.061601      0.240870
O      14.98403      9.14807     10.54771         0.063615     -0.153672      0.018779
O       7.43320      1.54715      2.25041         1.378005     -0.276590      0.872197
O       7.55239      2.08969     14.46058        -0.226408      0.031016      0.410495
O       7.51702     13.39436      2.40405        -1.957889     -0.128677     -0.079143
O       7.53645     12.92341     14.58171        -1.220159     -0.203947      0.435817
O       7.54093      1.55455      6.39297        -0.779403      0.845590     -0.043167
O       7.53843     13.21249      6.37736        -0.178125      0.007177     -0.114785
O       7.50114      1.50960     10.60278         0.405031      0.493415     -0.226244
O       7.48373     13.33470     10.48957         0.641475      0.290098      0.436617
O       7.53016      5.79525      2.18407        -0.984787      0.406567      0.946187
O       7.52337      5.40186     14.66671         0.361182      0.564135     -0.071181
O       7.48599      5.64937      6.43078        -0.078244      0.114151      0.131583
O       7.53916      5.87260     10.49819        -0.196581      0.053553     -0.143092
O       7.43981      9.34398      2.29879        -0.102720     -0.610971      0.326278
O       7.49157      9.60362     14.68743         0.477690     -0.468624     -0.151914
O       7.50416      9.24195      6.42084        -0.020786     -0.111854      0.402049
O       7.46174      9.16660     10.57857         0.685075     -0.701416      0.581050
O      11.24496      2.03350      2.35821        -0.002122      0.212862     -0.033735
O      11.30042      1.68868     14.74213        -0.332937     -0.015285     -0.230631
O      11.24679     12.91689      2.23498         0.258536     -0.145109      0.010164
O      11.28668     13.25822     14.79065        -0.079799      0.373098     -0.088263
O      11.24222      2.10420      6.38322         0.396298     -0.451806      0.064316
O      11.28484     13.10187      6.41737        -0.315738     -0.711217      0.440247
O      11.27044      2.03609     10.41939        -1.313397      0.117667      0.199982
O      11.21540     12.81996     10.52217         0.156502      0.279999     -0.341773
O      11.20055      5.35375      2.40824         1.164758      0.204848     -0.473467
O      11.27363      5.78270     14.64972        -0.574754     -0.120266      0.495039
O      11.26180      5.47477      6.40981         0.048465     -0.087835     -0.151075
O      11.27133      5.33425     10.60292        -0.768096      0.410630     -0.413519
O      11.18384      9.58782      2.44354         0.012941      0.038653     -0.007814
O      11.30296      9.26453     14.70368        -0.437682     -0.103525     -0.000114
O      11.21496      9.41895      6.53625         0.193425     -0.497936     -0.235185
O      11.27847      9.59496     10.53050        -0.092846     -0.232831     -0.131756
O       1.62791      3.76553      2.31702         0.194000     -0.500090     -0.105769
O       2.12499      3.69814     14.63801        -0.420073      1.156164      0.101960
O       2.07323     14.95652      2.29268         0.180436      0.597448     -0.062424
O       1.78682     15.00506     14.64640        -0.667652     -0.471603      0.172249
O      13.32604      3.67128      2.33675        -0.278490      1.157749     -0.200336
O      12.96435      3.74262     14.62514         0.113590     -0.968718      0.178764
O      12.93177      0.03691      2.28660        -0.195252     -0.675154      0.094724
O      13.41072     14.93614     14.49366        -0.103972      0.615781      0.469238
O       1.74467      3.72167      6.41389         0.369451      0.156998      0.006416
O       1.87732     14.99095      6.55754         0.516253     -0.678546      0.079050
O      13.31740      3.72331      6.47456        -0.164377      0.517745     -0.117083
O      12.95280      0.02190      6.41237        -0.007351     -0.001537      0.212551
O       1.69408      3.74496     10.58377         0.245667      0.040692      0.293355
O       1.93843     14.94780     10.52558         1.159090      0.581282      0.271277
O      13.29806      3.64004     10.59213         0.225724      1.263749      0.311487
O      12.96267     14.98264     10.50379        -0.597639     -0.825771      0.048171
O       2.03775      7.45987      2.41264        -0.185669      0.591174     -0.224809
O       1.65484      7.48472     14.61851         0.042646      0.825169     -0.030283
O      12.86926      7.44173      2.31300        -0.303019     -0.276936      0.222094
O      13.33715      7.49904     14.66317        -0.351051      0.131771      0.030606
O       2.02331      7.47408      6.32162        -0.455135     -0.111633      0.147322
O      13.12391      7.42073      6.42314        -0.552864      0.963979      0.041321
O       2.01168      7.49335     10.56822         0.415292      0.444983     -0.047413
O      12.88062      7.43198     10.56779         0.535205      0.722444     -0.641467
O       1.43738     11.23336      2.20066         0.257976     -0.168665      0.506432
O       2.05002     11.25457     14.47224         0.447369     -0.869229      0.470628
O      13.39129     11.21945      2.18485        -0.392752      0.513504      0.359044
O      13.04423     11.21676     14.61259        -0.403788      0.701512      0.293962
O       1.78602     11.24706      6.40817        -0.096214     -0.363062      0.255534
O      13.11307     11.22848      6.42114         0.293856      0.337598     -0.105174
O       1.62675     11.24479     10.50163        -0.270766     -0.586463      0.092933
O      13.39342     11.26358     10.51981        -0.027116     -1.234235     -0.091410
O       5.95262      3.65318      2.22390        -0.285383      1.156235      0.549773
O       5.37027      3.82648     14.71019         0.427709     -1.301033     -0.297786
O       5.30301     14.99586      2.36017        -0.258539     -1.342864     -0.033619
O       5.92390      0.00364     14.54410        -0.372877     -0.203970      0.156121
O       5.59368      3.65487      6.47544         0.777280      0.148727      0.068111
O       5.57593     14.88356      6.61167        -0.331576      0.994848     -0.224280
O       5.88542      3.68756     10.62218         0.030376      0.426697     -0.558418
O       5.40202     15.00576     10.60744        -0.040159     -1.093296     -0.103113
O       5.40446      7.47903      2.33515         0.341124     -0.076214      0.370506
O       5.79237      7.49124     14.62166         0.437856      0.119099      0.503292
O       5.56663      7.45585      6.28715        -0.178699     -0.602603      0.642451
O       5.30564      7.44009     10.55858         0.508985      0.138664     -0.121014
O       5.74428     11.28900      2.37661         0.066390     -0.428804      0.207965
O       5.35213     11.20665     14.63358         0.298802      0.408199      0.321475
O       5.73457     11.25025      6.50923        -0.221211     -0.394334      0.139494
O       5.96498     11.19817     10.44586        -0.653137     -0.320956      0.432666
O       9.11487      3.70942      2.26378        -0.001314     -0.373528      1.015429
O       9.56786      3.71923     14.63334         0.486471     -0.318126      0.206279
O       9.58610     14.99633      2.29314         0.373008      0.387036      0.593501
O       9.22556      0.03855     14.60357        -0.033702     -0.114494      0.578663
O       9.18675      3.74782      6.37672         0.005284     -0.429782     -0.132448
O       9.58009     14.95911      6.43563         0.050124      1.242934      0.151288
O       9.09665      3.73350     10.35485         0.011209     -0.367539      0.687276
O       9.67387     14.92427     10.46417        -0.125923      0.456328     -0.137819
O       9.48325      7.54034      2.14026         0.579834     -0.126267      0.457244
O       9.36124      7.50627     14.66952        -0.882670     -0.282273      0.302810
O       9.48677      7.48284      6.47790        -0.031446      0.090824     -0.044673
O       9.51954      7.47378     10.48063         0.777352     -0.649611      0.492511
O       9.12885     11.36754      2.32827         0.142191     -1.764633      0.461330
O       9.57195     11.31290     14.65513         0.190624     -1.431604      0.263707
O       9.33450     11.23393      6.48336         0.182311     -0.079099     -0.347053
O       9.17830     11.21739     10.62376        -0.155814      0.125647     -0.088286
