  # total energy = -7865.16699363 
CRSYTAL
PRIMVEC
    15.010000000000000    0.0000000000000000    0.0000000000000000
     0.0000000000000000   15.010000000000000    0.0000000000000000
     0.0000000000000000    0.0000000000000000    16.400000000000000
PRESSURE
16.8617 16.8016 7.5522 0.082668 -0.17434 0.094875
PRIMCOORD
320 1
Pb       3.69077      3.57400      4.14275         0.104472      0.324880     -0.190173
Pb       3.68391      3.78224     16.32615         0.436290     -0.059454     -0.280217
Pb       3.80729     14.92344      4.19282        -0.203698     -0.046769     -0.954276
Pb       3.83414      0.06675     16.35662        -0.257532     -0.185347      0.038132
Pb      14.97690      3.79048      4.24802         0.067800     -0.609234     -0.544822
Pb      14.88029      3.76394      0.05833         0.446115      0.104173     -0.477965
Pb      14.92166     15.00719      4.30730        -0.060182     -0.133621     -1.448476
Pb       0.07199      0.04122     16.28096        -0.971208     -0.165352      0.854476
Pb       3.71942      3.73226      8.12135         0.010799      0.207535      0.187839
Pb       3.82483     14.99635      8.30126        -0.525663     -0.435812      0.083811
Pb       0.07260      3.73837      8.11039        -0.107656      0.355824     -0.191243
Pb       0.15124     14.92465      8.25803        -0.663664     -0.249072     -0.202267
Pb       4.02383      3.70383     12.35245        -0.926663      0.074486      0.285665
Pb       3.69709     14.99625     12.34260        -0.002347     -0.279974      0.124758
Pb       0.05833      3.83573     12.27720         0.052018      0.185702      0.120033
Pb      14.98576     14.97900     12.22931         0.048951     -0.377679      0.073312
Pb       3.65624      7.63918      4.23392         0.205296     -0.356887     -1.632515
Pb       3.76125      7.54386     16.39974        -0.264459     -0.122317      0.223922
Pb      14.87254      7.57447      4.11776         0.191657     -0.152805     -0.726753
Pb      14.91164      7.46933      0.03778         0.116819      0.109996      0.398086
Pb       3.70618      7.52802      8.28820         0.509991     -0.081041      0.250501
Pb       0.03662      7.49130      8.09103        -0.637793      0.147158      0.909794
Pb       3.71681      7.29287     12.40125         0.225394      0.578997     -0.196022
Pb      15.00326      7.48388     12.23617        -0.287314     -0.705221     -0.126097
Pb       3.58239     11.21574      4.07350         0.443835      0.335064     -0.241480
Pb       3.67540     11.32227      0.06835         0.074357     -0.640308     -0.524414
Pb      14.86979     11.17662      4.15924         0.131031      0.836969     -0.720088
Pb      14.94267     11.32705      0.05382        -0.397208     -0.290390     -0.115422
Pb       3.53116     11.21210      8.26124         0.967658      0.034516     -0.144415
Pb      14.99687     11.16171      8.10948        -0.769011      0.360936      0.503871
Pb       3.67573     11.09010     12.47176        -0.018786      0.430753     -0.439696
Pb      14.95731     11.18107     12.31857         0.375918      0.941845      0.065560
Pb       7.45709      3.87033      4.26409         0.322125     -0.940081     -1.051818
Pb       7.52220      3.71221      0.20863         0.445040      0.110275     -0.428639
Pb       7.55227      0.03599      4.26629        -0.443073     -0.026725     -0.502640
Pb       7.61740      0.03157      0.01375        -0.191899     -0.092054     -0.066724
Pb       7.60876      3.77061      8.15356        -0.479023     -0.668685      0.352156
Pb       7.45042     14.94697      8.30919         0.145843     -0.194295     -0.044505
Pb       7.57395      3.71023     12.39336         0.516027      0.615280     -0.343849
Pb       7.52999     15.00642     12.25733         0.044273     -0.340384      0.360689
Pb       7.34078      7.46621      4.19831         0.010251      0.606263     -0.673195
Pb       7.49901      7.38358      0.09828         0.303136      0.753230      0.068099
Pb       7.51519      7.40028      8.10714         0.094654      0.864689      0.340183
Pb       7.57922      7.55776     12.34919         0.335082     -0.697845     -0.243149
Pb       7.23321     11.19597      4.20092         0.371517      0.313671     -0.145843
Pb       7.37072     11.30756      0.05500         0.672668     -0.645148     -0.366202
Pb       7.40784     11.10819      8.22723         0.325399      0.485290      0.385156
Pb       7.51783     11.22447     12.43291         0.679540      0.146355     -0.641578
Pb      11.32557      3.67787      4.25613        -0.248616     -0.155754     -0.734792
Pb      11.36893      3.81699      0.10692        -0.933212      0.082633     -0.341130
Pb      11.26369     14.98946      4.20068         0.061157     -0.056331      0.038946
Pb      11.40171      0.13750     16.37041        -0.411850     -0.565034     -0.273675
Pb      11.44976      3.72118      8.26828        -0.859155     -0.109662     -0.201759
Pb      11.29167     14.89782      8.20921        -0.066443      0.257226      0.411348
Pb      11.30217      3.73378     12.19886        -0.526217      0.322771      0.447120
Pb      11.30474     14.86764     12.35382        -0.097415      0.558693     -0.855166
Pb      11.21338      7.53171      4.15424        -0.167572      0.177400     -1.134191
Pb      11.22862      7.42710      0.14988        -0.189418      0.595275      0.029513
Pb      11.23045      7.51641      8.10334         0.444314      0.395347      0.732689
Pb      11.25458      7.43988     12.37617        -0.159151      0.049431     -0.495384
Pb      11.02852     11.29177      4.17782         0.324639      0.581818     -0.724623
Pb      11.13790     11.32773      0.01445         0.403347     -0.256682      0.535385
Pb      11.14638     11.24992      8.22157         0.358712      0.380853      0.331741
Pb      11.24773     11.11423     12.42544        -0.488212      0.624364     -0.788137
Ti       1.87129      1.92908      1.97811        -0.327271     -2.245483      0.414665
Ti       1.87582      1.90775     14.34734         0.013628     -0.469794     -0.301573
Ti       1.85459     13.07251      2.02769        -1.288035      1.765535      0.783790
Ti       1.83454     13.14564     14.49395         0.796363     -0.106783     -1.196353
Ti      13.14147      1.77330      2.09515         1.106042      0.238050      1.029675
Ti      13.16516      1.98165     14.20138        -1.096690     -0.618825      0.116592
Ti      13.10187     13.10329      2.07135        -0.144092      0.049806     -0.215561
Ti      13.09256     13.17136     14.31565         1.204732     -0.662630     -0.264149
Ti       1.87536      1.82111      6.18423        -0.814808      0.068749     -0.513812
Ti       1.83522     13.14570      6.06737        -0.174754     -1.263929      0.068459
Ti      13.11900      1.89408      6.28609         0.018843     -0.753698     -1.044981
Ti      13.07409     13.16184      6.25058        -0.238521     -0.753352     -0.230119
Ti       1.80674      1.88358     10.23430         1.077697     -0.424192      0.850429
Ti       1.93261     13.05816     10.27932        -1.296269     -0.401890      0.504768
Ti      13.13944      1.91988     10.26363        -1.129679     -1.930039      0.234005
Ti      13.16177     13.07438     10.23281        -0.707570      0.283890      0.260390
Ti       1.88737      5.56669      2.13352        -0.168123      2.097066     -0.474395
Ti       1.82959      5.66770     14.42922         0.349961     -0.943746     -0.282344
Ti      13.15847      5.55687      2.13466        -0.656699      1.129342     -0.496885
Ti      13.10332      5.65676     14.36336        -0.496139     -0.504296     -0.787482
Ti       1.86970      5.71712      6.11448        -0.938472     -1.162007      0.375039
Ti      13.07425      5.66307      6.13524         0.438164     -0.657345      1.195153
Ti       1.94772      5.60430     10.21947        -1.052352      0.579780     -0.620289
Ti      13.13285      5.61533     10.17264         0.558631      1.793843      0.841008
Ti       1.76322      9.34000      1.95857        -1.020276     -0.855818      0.339641
Ti       1.74509      9.35968     14.35027         1.292458      0.219883      0.956709
Ti      12.97448      9.41952      1.98407         0.802186     -0.183243      0.803928
Ti      13.08687      9.37777     14.39459        -0.996367      0.235137      1.500046
Ti       1.85729      9.38623      6.20125        -0.401104      0.945114     -0.474469
Ti      13.05860      9.41502      6.11204        -0.296041      0.559524      0.845213
Ti       1.84577      9.29123     10.30437         0.755978      0.590457     -0.027988
Ti      13.13741      9.38633     10.30712        -1.063614     -0.785250     -1.517849
Ti       5.67349      1.85174      2.05813         0.123557     -0.132462      0.727641
Ti       5.76625      1.83077     14.42249        -1.561584     -0.517776      0.012933
Ti       5.59304     13.14929      2.01545        -0.561301      0.530637      1.510798
Ti       5.67293     13.01222     14.35585        -0.826568      1.987185     -0.380458
Ti       5.56865      1.81390      6.26274         0.580258     -0.762490     -0.642402
Ti       5.52373     13.04000      6.29523         0.449783      0.319754     -0.346061
Ti       5.57343      1.81453     10.32755         0.427630     -0.172889     -0.630194
Ti       5.63455     13.02913     10.34402         0.753700     -0.186686     -0.487390
Ti       5.57430      5.56353      2.08034         0.187797      0.566305      0.028441
Ti       5.72978      5.61764     14.43415        -0.807955     -0.481898      0.609664
Ti       5.52760      5.57361      6.15327         0.156107      0.188818      0.333613
Ti       5.66701      5.60652     10.21756         0.515963      0.931906      0.705603
Ti       5.48224      9.38124      2.10839         0.100314     -0.818972     -0.428692
Ti       5.62953      9.26815     14.36274        -0.341241      0.571083      1.041042
Ti       5.54207      9.31679      6.25427         0.835457      1.723863     -0.559215
Ti       5.63763      9.32300     10.41966        -0.134825     -0.601196     -1.252016
Ti       9.45728      1.85174      2.15199        -1.631167      0.750213     -0.560987
Ti       9.43654      1.93251     14.44317         0.694165      0.367149     -0.922669
Ti       9.29549     13.17224      2.14684         1.561739     -0.566675      0.234265
Ti       9.44157     13.24229     14.36312        -1.227449     -1.097749     -0.135803
Ti       9.35631      1.86717      6.24516        -0.080864     -0.030366     -0.290646
Ti       9.29494     13.24370      6.23852        -0.233484     -1.766929     -0.047088
Ti       9.35678      1.87103     10.29873         0.475637     -0.430478     -0.192128
Ti       9.38329     13.13096     10.26560         0.046376     -1.749706      0.080873
Ti       9.32903      5.64473      2.16022         0.775931     -0.657441      0.153131
Ti       9.39335      5.71334     14.44990         0.273185     -0.939819     -0.120946
Ti       9.37836      5.59423      6.12237         0.497807      0.352233      0.255780
Ti       9.43196      5.62303     10.16818        -0.578035     -0.019013      1.357990
Ti       9.19671      9.41577      2.15808         1.019283      0.299854     -0.724666
Ti       9.37708      9.44570     14.44226         0.309215     -0.652371      0.396335
Ti       9.34089      9.45959      6.12600        -0.751147     -0.332280      0.294297
Ti       9.41839      9.33350     10.12269        -0.669413      0.988804      0.423476
O       1.71021      1.86690      0.11235         0.165321      0.957534      1.488500
O       1.64635      1.74432     12.51679         0.927392      0.230504     -0.623121
O       1.75814     13.00745      0.17622         0.444785      0.256402      0.174019
O       1.77969     13.15192     12.65655         0.398271      0.085027     -0.611587
O      13.17329      1.91709      0.25010        -0.316994     -0.354477      0.316033
O      13.16121      1.99141     12.38992         0.112385      0.080117     -0.252519
O      13.07378     13.12559      0.21657         0.055187      0.475008      0.236521
O      13.09852     13.04525     12.43308         0.198073      0.139717      1.360350
O       1.88272      1.85226      4.36168         0.155810     -0.174845     -0.035745
O       1.82128     13.07707      4.23039         0.352902      0.153831      0.952958
O      13.16647      1.91719      4.37519        -0.096380      0.072482      0.661179
O      13.02018     13.15223      4.43705         0.102613     -0.279747     -0.976264
O       1.86588      1.72105      8.41459         0.232466      0.725747      0.078879
O       1.88561     13.02229      8.45448        -0.323827      0.281458      0.348375
O      13.04510      1.88304      8.40649         0.104734     -0.116077     -0.193870
O      13.16967     13.10862      8.36183        -0.045378      0.050957      1.114243
O       1.80521      5.61341      0.28847        -0.056821     -0.686935     -0.137269
O       1.78777      5.70976     12.56566         0.197917     -0.392669      0.299719
O      13.19473      5.69113      0.20818        -0.051146     -0.649152      1.038496
O      13.04224      5.56218     12.45782         0.219375     -0.047397      0.937418
O       1.74531      5.73456      4.32009         0.629187     -0.070762      0.156089
O      13.06425      5.62241      4.34376        -0.112348     -0.250523     -0.981214
O       1.84096      5.71565      8.33549         0.335894     -0.497507      1.346036
O      13.00250      5.63713      8.35904         0.685863      0.115735     -0.153462
O       1.83733      9.42658      0.16050        -0.021351     -0.028013     -0.190120
O       1.84768      9.26623     12.50699        -0.265430      0.145369      0.455283
O      13.05723      9.33198      0.21363         0.243656      0.120925     -0.707097
O      13.00559      9.41590     12.59455         0.375823     -0.205066     -1.060213
O       1.64038      9.26831      4.37229         0.724925      0.430346      0.376155
O      13.06655      9.40306      4.28410        -0.088626      0.012431      0.693056
O       2.01368      9.32440      8.40087        -0.526806     -0.114630      0.566091
O      13.08397      9.30693      8.45719         0.048817      0.209856      0.248758
O       5.65537      1.83904      0.26684         0.051264      0.117813     -0.677032
O       5.67210      1.83387     12.54264        -0.041487      0.173499      0.302445
O       5.46046     13.11985      0.25736         0.811446     -0.140307     -0.825079
O       5.73358     12.95597     12.50592        -0.432177      0.361104      0.442554
O       5.55494      1.76997      4.36520        -0.069467      0.520657      0.333429
O       5.55445     13.05695      4.44464        -0.152396      0.255049     -0.702917
O       5.52703      1.72363      8.43838        -0.137890      0.507484      0.687987
O       5.74744     13.06336      8.38285        -0.870288      0.222885      1.575248
O       5.64822      5.52261      0.24636        -0.091657      0.346802      0.560322
O       5.72038      5.69595     12.63646        -0.762481     -0.545154     -0.539291
O       5.55810      5.52276      4.35068         0.019773      0.090744      0.328029
O       5.65439      5.67076      8.37429        -0.083266     -0.154181      0.613447
O       5.54517      9.34399      0.27408         0.080354      0.246195      0.156620
O       5.67993      9.15953     12.53379        -0.093221      0.846442      0.481322
O       5.52096      9.35232      4.29868         0.187169      0.420655      0.968390
O       5.54283      9.33300      8.50084         0.192307     -0.235366     -0.310670
O       9.40940      1.95245      0.26030         0.435741     -0.525811      0.496478
O       9.17805      1.79189     12.55420         0.565153      0.464930      0.259442
O       9.30921     13.01129      0.34704         0.124120      0.508155     -0.661656
O       9.38519     13.20427     12.53884        -0.060328     -0.406121      0.284647
O       9.25416      1.88922      4.40094         0.097115     -0.210815     -0.476385
O       9.50236     13.23286      4.40470        -0.680742      0.240649     -0.300122
O       9.37577      1.95419      8.44742        -0.114166     -0.192217      0.066179
O       9.31808     13.05595      8.41195         0.129799      0.436268     -0.161203
O       9.32647      5.65201      0.34755        -0.185846     -0.096890     -0.855047
O       9.44444      5.62254     12.64606         0.184189      0.060735     -0.792995
O       9.40281      5.58452      4.29411         0.049073      0.255597      0.423579
O       9.26526      5.48370      8.37847         0.283106      0.217349     -0.480843
O       9.20349      9.39497      0.28846         0.098460      0.384480      0.630325
O       9.47104      9.24321     12.60438        -0.135346      0.604795     -0.063339
O       9.20835      9.26925      4.29486         0.629444      0.062928      0.693384
O       9.34610      9.44435      8.26802        -0.160666     -0.524114      1.114742
O       3.73953      2.30515      2.18308        -0.306119     -0.270935      0.148680
O       3.73661      1.74858     14.64568         0.602301     -0.025357     -0.528529
O       3.67063     12.89620      2.25579         0.879598     -0.594423      0.372765
O       3.80238     13.44238     14.59944        -0.966929     -1.054614     -0.186819
O       0.00706      1.51128      2.43324         0.049009      0.620116     -0.773580
O      14.91923      2.14766     14.46335         1.390373     -0.054867      0.822422
O      14.99987     13.32635      2.38018         0.129157      0.563557     -0.102344
O      14.96283     12.92066     14.68534        -0.283552      0.676915     -0.410547
O       3.65234      2.11732      6.45782         1.438082     -0.457011      0.086736
O       3.66272     12.77493      6.39639         0.255591      0.333079      0.036494
O      14.97883      1.75316      6.41344         1.101707     -0.237348      0.539879
O      14.95616     13.18236      6.31101         1.355570      0.410919      0.563556
O       3.70237      1.79790     10.60930         0.107956      0.665375      0.051173
O       3.78359     12.82805     10.57326        -0.147307     -0.181198      0.077809
O      14.97187      1.72242     10.31668         0.930229     -0.393158      0.392279
O       0.01426     13.22449     10.57244         0.425543      0.279359     -0.397571
O       3.77328      5.33377      2.39204        -1.010511     -0.485778     -0.165988
O       3.74061      5.80721     14.73052        -0.256208     -0.315356     -0.611731
O      14.98105      5.85372      2.42235        -0.147051      0.260869     -0.282357
O      14.93367      5.49229     14.58229         0.847824     -0.821548      0.081778
O       3.67332      5.48040      6.44554         1.049095     -0.196988     -0.030191
O      14.96539      5.81720      6.47332         0.382072     -0.304866     -0.448398
O       3.75171      5.47125     10.56128         0.484659     -0.078598     -0.037678
O       0.00648      5.66572     10.46742         0.114756      0.522925      0.032010
O       3.59359      9.50675      2.32534         0.961683      0.592232      0.313552
O       3.73172      9.13989     14.59466        -0.236719      0.306294     -0.465368
O      14.86727      8.91014      2.25655         0.989533      0.967256     -0.089580
O      14.93990      9.59791     14.66255         0.195849     -0.280379     -0.428957
O       3.76354      9.71530      6.29230        -1.595933     -0.241551      0.186811
O      14.91671      9.24215      6.49851         0.657118     -0.166543     -0.366071
O       3.77861      9.56059     10.60816        -0.790408     -0.192780     -0.104952
O      14.99412      9.05206     10.44248         0.464078      0.162524      0.273914
O       7.54616      1.43100      2.25838        -0.494490      0.401779      0.104196
O       7.55190      1.89374     14.75080        -0.173290      0.667951     -0.153774
O       7.46372     13.38594      2.28537        -0.984849      0.099157      0.369285
O       7.53471     12.97548     14.60718        -0.164089     -0.279579      0.402242
O       7.41619      1.58991      6.46437        -0.159562      0.177949      0.008928
O       7.42815     13.41723      6.40987         0.272842      0.153405     -0.273952
O       7.46220      1.57915     10.45503         0.112087      0.704945     -0.036391
O       7.54361     13.29173     10.50098        -0.941601     -0.261483      0.154900
O       7.47188      5.81780      2.37154        -0.129215      0.720923      0.262141
O       7.53546      5.46615     14.63378        -0.090158     -0.231256      0.472203
O       7.45855      5.82136      6.33629        -0.288541     -0.251468     -0.095746
O       7.55119      5.72779     10.66217        -0.931258     -0.000217     -0.920516
O       7.36765      9.17654      2.35445         0.300092      0.097290      0.096802
O       7.50264      9.62010     14.61938        -0.915252      0.035410     -0.080127
O       7.44319      9.11589      6.37792         0.390807     -0.085076      0.140273
O       7.57497      9.03162     10.49662        -0.712457      0.150943     -0.062611
O      11.24559      2.06032      2.44749         1.258525      0.424463     -0.268852
O      11.29662      1.58425     14.48897        -0.648401      0.827609      0.306082
O      11.24031     12.73741      2.26892         0.524149      0.629294      0.419895
O      11.26786     13.39310     14.55105         0.024192     -0.170887      0.534058
O      11.21666      2.01956      6.31813         0.271575      0.438718      0.409308
O      11.21533     13.02331      6.47779        -0.632872     -0.080613      0.465469
O      11.21291      1.95612     10.54640         0.478187      0.329601     -0.163982
O      11.25159     12.89954     10.54509         0.991205     -0.307855     -0.391017
O      11.29043      5.35472      2.16749        -0.778405     -0.190791      0.727703
O      11.23242      5.82873     14.79847         0.359642     -0.034982     -0.235700
O      11.25414      5.26694      6.38333        -1.082533      0.493909     -0.099681
O      11.29590      5.48326     10.40822        -1.293241     -0.862020      0.273396
O      11.20237      9.76843      2.31626        -0.703624     -0.528666      0.054980
O      11.21086      9.21192     14.80472         0.360954     -0.125918     -0.560899
O      11.17526      9.62670      6.57674         0.789508     -1.005841     -1.386757
O      11.24501      9.59663     10.46667         0.409975     -0.145146      0.173416
O       1.48858      3.78815      2.39704         0.327286     -1.451547     -0.176610
O       2.03270      3.70745     14.48348        -0.174489      1.793450      0.375804
O       2.23528      0.00335      2.16170        -0.665946      0.719841      0.030321
O       1.71754      0.05392     14.75351        -0.194803     -0.937886     -0.745930
O      13.39265      3.68685      2.33097        -0.029403      0.246756     -0.163662
O      12.82482      3.79897     14.59971         0.175000     -0.612914      0.096131
O      12.90227     14.95446      2.50904        -0.155297      0.606838     -0.805333
O      13.21205      0.06816     14.44311         1.096513     -0.689297      0.397524
O       1.78694      3.74519      6.33879        -0.859582      0.695453      0.475833
O       2.02511     14.91785      6.50223        -0.009581      0.876337     -0.238217
O      13.31256      3.75347      6.46475        -0.027604      0.341437      0.050918
O      12.99944      0.01170      6.47160        -0.019862      0.380419      0.107371
O       1.79853      3.75595     10.43811        -0.157543     -1.266961      0.062111
O       2.07510     14.87739     10.47978        -0.602889      1.184870      0.072180
O      13.26354      3.74701     10.37415        -0.114064     -0.039976      0.149006
O      12.98743     14.96566     10.53061         0.184033      0.290655     -0.331405
O       2.11993      7.50463      2.19173        -0.201194     -0.962077      0.504017
O       1.61466      7.47349     14.74279         0.238994      0.910870     -0.583087
O      12.72173      7.53169      2.28601         0.227486     -0.895847      0.422811
O      13.27390      7.47226     14.57438        -0.024482      1.258736     -0.198661
O       2.10372      7.56700      6.49617        -0.276956     -0.477119     -0.398663
O      12.85396      7.48781      6.35137        -0.005080      0.648798     -0.110267
O       2.00552      7.45064     10.61093         0.350056     -0.236797     -0.427682
O      12.89678      7.49868     10.55131         0.404132     -0.445131      0.123694
O       1.57162     11.18124      2.26861        -0.070294      0.385647      0.353125
O       2.01532     11.26023     14.52521         0.492678     -0.800749      0.135513
O      13.54004     11.28087      2.20868        -0.515520     -1.035092      0.415539
O      12.84307     11.28886     14.58353         0.221547     -0.295772     -0.087721
O       1.69813     11.25155      6.53396        -0.243646     -0.613042     -0.663261
O      13.23987     11.27476      6.40108        -0.047346     -1.496629      0.083635
O       1.62542     11.10366     10.53865         0.276995      1.292824      0.147793
O      13.47835     11.21595     10.52877        -0.660813     -0.166368     -0.292090
O       6.06221      3.71896      2.25963        -0.648751     -0.309128      0.466146
O       5.50011      3.73274     14.68422        -0.037699     -0.341616     -0.567603
O       5.22008      0.02629      2.27810         0.376724     -0.736814      0.241031
O       5.79903     14.96140     14.66579         0.137206      0.526016     -0.130668
O       5.74687      3.69491      6.50205        -0.200435      0.853176     -0.098776
O       5.17510     14.97571      6.41096         0.463620      0.039084      0.015378
O       5.59057      3.72571     10.64226         0.945867     -0.340527     -0.650461
O       5.55390     14.90526     10.56572        -0.838639      0.153790     -0.027346
O       5.34314      7.47659      2.41226         0.187755     -0.391856     -0.221359
O       5.79645      7.47270     14.78767         0.172338      0.426872     -0.282682
O       5.26603      7.54652      6.26661         0.311303     -2.091102      0.625024
O       5.34166      7.43686     10.61633         0.610400     -0.701474     -0.670141
O       5.67657     11.26394      2.32941         0.319448      0.092139     -0.002695
O       5.42645     11.23068     14.68075        -0.100406     -0.949939     -0.149346
O       5.90785     11.24221      6.46699        -0.240837     -0.849593     -0.397616
O       5.93584     11.13875     10.66876        -0.166025      0.796073     -0.506533
O       9.04052      3.75384      2.31470         0.325967     -0.596105      0.302342
O       9.57314      3.75916     14.64083        -0.008479     -0.253675      0.010150
O       9.77385      0.00350      2.32351        -0.495065     -0.596193     -0.054307
O       9.31678      0.03092     14.68387        -0.573807     -0.380110      0.549190
O       9.07886      3.69139      6.32998        -0.203558      1.451513      0.426186
O       9.50765      0.02622      6.42434         0.218906      0.315710      0.650071
O       9.22229      3.74253     10.59877        -0.059630     -0.362612     -0.113115
O       9.63021     14.89729     10.53058        -0.427011      2.339075     -0.279164
O       9.60459      7.55283      2.29379         0.000770     -0.276047      0.411852
O       9.15945      7.53042     14.59011        -0.250943      0.347354      0.767976
O       9.56073      7.44123      6.47242        -0.252513      0.048114     -0.586218
O       9.62129      7.45390     10.35858         0.076995     -0.059535      0.284722
O       9.19644     11.31558      2.59421        -1.130177     -0.807533     -0.333713
O       9.60682     11.31641     14.67720        -0.393831      0.000229     -0.749656
O       9.11305     11.29477      6.33769        -0.093445     -0.546691     -0.208801
O       9.22152     11.17025     10.46751        -0.447140      0.185229      0.386418
