  # total energy = -7880.22995456 
CRSYTAL
PRIMVEC
    15.6000000000000000    0.0000000000000000    0.0000000000000000
     0.0000000000000000   15.6000000000000000    0.0000000000000000
     0.0000000000000000    0.0000000000000000    17.640000000000000
PRESSURE
-5.08457 -5.29474 -4.20002 -0.013632 0.310841 -0.005054
PRIMCOORD
320 1
Pb       3.81077      3.92248      4.30429         0.252143     -0.281730     -0.417918
Pb       3.83296      3.79808     17.54678        -0.376437      0.007174     -0.013594
Pb       4.04916      0.08939      4.35457        -0.369716      0.173439     -0.191947
Pb       3.95327     15.49584     17.48978        -0.782902      0.256738      0.221186
Pb      15.59182      3.87069      4.34813         0.134805     -0.179319     -0.225134
Pb      15.49463      3.90192     17.61013         0.285680     -0.389478     -0.328310
Pb      15.56789     15.58315      4.40221         0.344960      0.192800     -0.155879
Pb       0.14404     15.50237     17.50647        -0.235753      0.138574     -0.002864
Pb       3.96474      3.79840      8.71345        -0.232301      0.225329      0.485852
Pb       3.87309     15.54502      8.75153         0.201256     -0.589089     -0.250456
Pb      15.54911      3.84850      8.72734         0.282254      0.046265     -0.287865
Pb       0.03065     15.42075      8.90499         0.135023      0.225040     -0.455163
Pb       3.78514      4.00172     13.20091        -0.220571      0.083192     -0.397149
Pb       3.77196     15.53466     13.13904         0.196268     -0.023390     -0.250784
Pb      15.47923      3.84528     13.11388         0.198489      0.336547     -0.032093
Pb      15.58619     15.58436     13.12348         0.236186     -0.043171     -0.405077
Pb       3.81743      7.72451      4.35717         0.414009      0.489213     -0.205817
Pb       3.75000      7.71807     17.62062         0.140184      0.310400     -0.440400
Pb      15.48184      7.83415      4.42098        -0.044437      0.092029     -0.819245
Pb      15.51310      7.72893      0.02037         0.209208      0.515868     -0.376882
Pb       3.94480      7.75591      8.71084        -0.281040      0.100215     -0.118575
Pb      15.57882      7.68272      8.78455         0.155065      0.013824     -0.383311
Pb       3.85739      7.72624     13.19981        -0.486113      0.174183     -0.605982
Pb      15.47075      7.82528     13.20597         0.235663     -0.480984     -0.252140
Pb       3.88215     11.72808      4.34936         0.696897     -0.190262     -0.387860
Pb       3.90300     11.66048     17.62644        -0.596255      0.000307      0.520288
Pb      15.53765     11.66844      4.46255        -0.291557      0.198432     -1.083769
Pb      15.53814     11.66154      0.08573         0.613421     -0.107609     -0.694793
Pb       3.85741     11.62560      8.71729         0.203336      0.526378     -0.075324
Pb      15.54027     11.69410      8.79829         0.529301     -0.059509     -0.012388
Pb       3.88882     11.74156     13.18299         0.005850     -0.654371     -0.092333
Pb       0.01060     11.62961     13.13480        -0.112694      0.149981     -0.093319
Pb       7.75886      4.02670      4.33176         0.163905     -0.215185     -0.541988
Pb       7.72134      3.81757     17.50735         0.513124      0.248826     -0.166293
Pb       7.88038      0.08517      4.29504        -0.148358     -0.116564      0.567426
Pb       7.88462     15.54834     17.57528         0.198541      0.191525     -0.264625
Pb       7.83907      3.84892      8.77254         0.068633      0.060699      0.303557
Pb       7.72419     15.48706      8.76797         0.286443      0.264176     -0.207199
Pb       7.68290      3.92785     13.09260        -0.016264     -0.197202     -0.389037
Pb       7.70166     15.47055     13.22895         0.258900      0.217121     -0.274880
Pb       7.69907      7.96607      4.34187         0.425905      0.136530     -0.218352
Pb       7.79985      7.81773      0.02633        -0.302532     -0.034293     -0.497126
Pb       7.79499      7.77010      8.77245         0.096486      0.027892     -0.220376
Pb       7.64350      7.70953     13.13300         0.687236      0.334124     -0.259398
Pb       7.78069     11.83536      4.35629        -0.103675     -0.419014      0.073302
Pb       7.73745     11.68762      0.05003         0.192986     -0.271746     -0.038284
Pb       7.69001     11.67837      8.89160         0.393637     -0.198588     -0.860890
Pb       7.86470     11.57155     13.23827        -0.071061     -0.427981     -0.349541
Pb      11.56476      4.00244      4.38275        -0.262270     -0.377744     -0.493892
Pb      11.73363      3.97058     17.54195        -0.260003     -0.343430     -0.297537
Pb      11.74114      0.09436      4.41969         0.089834     -0.135421      0.105599
Pb      11.66441     15.59806     17.57430         0.296680      0.029343     -0.475469
Pb      11.67459      3.88131      8.79678         0.108540     -0.244273     -0.718410
Pb      11.68762     15.57102      8.87027         0.051389      0.162441     -0.291275
Pb      11.54299      3.89900     13.22436         0.164076      0.084076     -0.044469
Pb      11.71487     15.46662     13.16072        -0.469758      0.395079     -0.134753
Pb      11.61361      7.81689      4.40125         0.016679      0.226751     -0.793311
Pb      11.55694      7.86329     17.63271         0.533507      0.142687     -0.168854
Pb      11.72261      7.74414      8.76624        -0.135038      0.023870     -0.591181
Pb      11.63361      7.81177     13.20785        -0.077859     -0.336582     -0.135433
Pb      11.73667     11.94205      4.41936         0.080172     -0.265243     -0.580066
Pb      11.75855     11.73845     17.63718        -0.231375     -0.196803     -0.354594
Pb      11.69525     11.62216      8.70621        -0.257861      0.199433     -0.328015
Pb      11.75412     11.70053     13.09182         0.030562     -0.404397     -0.000656
Ti       1.92078      1.98039      2.38138         0.327898     -0.618523     -0.280199
Ti       1.87278      1.96355     15.53560         0.206549      0.025272      2.277430
Ti       2.01557     13.68111      2.41551        -0.122724      0.754627     -1.405959
Ti       1.96147     13.60664     15.50679        -0.538466     -0.482382      0.366136
Ti      13.63353      1.96211      2.36048         0.350380      0.224701     -0.706770
Ti      13.57883      1.83566     15.53126         0.829174      0.475186      1.297871
Ti      13.79191     13.74507      2.26230        -0.770504     -0.932665     -0.706816
Ti      13.66778     13.56879     15.54834         0.155023      0.473049     -0.364380
Ti       2.07625      1.86006      6.78558        -0.773832     -0.413028     -0.267297
Ti       2.13438     13.50840      6.58056        -0.595735      2.006151      0.247292
Ti      13.73632      1.88272      6.94350        -0.265879     -0.722808     -1.276284
Ti      13.81489     13.59876      6.78239        -0.610946      0.802924     -0.654861
Ti       1.97003      1.95053     11.10934        -0.656473     -0.133265      1.446991
Ti       2.01114     13.52609     11.23812         0.043894      0.518254     -1.344838
Ti      13.59810      1.88187     11.20887         0.449532     -0.043882     -0.855487
Ti      13.63351     13.59098     11.13713         0.812028     -0.333335      1.070139
Ti       1.95230      5.91454      2.37401        -0.648099     -0.739557     -0.020508
Ti       1.90874      5.84559     15.62590        -0.157261     -0.082659     -0.856396
Ti      13.65275      5.79338      2.47789        -0.455943      0.397668     -0.545478
Ti      13.69012      5.79770     15.58536        -0.445135      0.393133     -1.564998
Ti       1.95938      5.78576      6.75553        -0.610071      0.042547      0.054536
Ti      13.61790      5.83445      6.63861        -0.034906     -0.608202      0.555083
Ti       1.77696      5.83344     11.07751         0.728920      0.262319      1.213247
Ti      13.56093      5.76759     11.11891         0.626764      0.767881      0.397247
Ti       1.96933      9.79639      2.40419        -0.498800     -0.138285     -1.360192
Ti       2.00593      9.79175     15.62888        -1.103263     -0.281989     -0.194677
Ti      13.69370      9.77006      2.31428        -0.405232     -0.134536      1.539407
Ti      13.69562      9.73712     15.61487        -0.221011     -0.445813      0.689721
Ti       1.85973      9.70489      6.74936         0.831209     -0.454711      0.124823
Ti      13.67477      9.66322      6.77926        -0.299649      0.211423     -0.860628
Ti       1.89871      9.70397     11.15096         0.990151     -0.600493      1.649598
Ti      13.65806      9.67224     11.13855        -0.084003     -0.319769      0.381632
Ti       5.95673      2.03385      2.31238        -0.456777     -0.548725      0.171800
Ti       5.84708      1.85951     15.67291        -0.553343      0.592232     -1.364220
Ti       5.88679     13.73535      2.43932         0.244345     -0.676532      1.885018
Ti       5.85998     13.55316     15.63756         0.157269      0.756765     -2.196582
Ti       5.95532      1.98151      6.82018         0.074607     -1.161697     -1.270476
Ti       5.98669     13.66484      6.72280        -1.267171     -0.730132     -0.472537
Ti       5.78803      1.78569     11.26919         0.276401      0.770613     -1.370014
Ti       5.93855     13.47454     11.25032        -1.470616      0.670121     -0.605590
Ti       5.82299      5.86334      2.22267        -0.022682     -0.019616      0.886027
Ti       5.79807      5.83717     15.62866         0.058838      0.493190      1.842624
Ti       5.85200      5.80670      6.77818         0.205944      0.756707     -0.409097
Ti       5.77906      5.79379     11.16685         0.311193      0.134524     -0.503562
Ti       5.84253      9.77785      2.39606        -0.169214      0.889650     -0.290730
Ti       5.82679      9.79691     15.63715         0.068259     -1.774753      0.244380
Ti       5.83212      9.70788      6.82299         0.444326      0.743535     -1.793863
Ti       5.80211      9.70287     11.09565        -0.378583     -0.202184      0.788262
Ti       9.78624      1.85095      2.35254         0.337298      1.899506     -0.870646
Ti       9.73705      1.94596     15.52843         0.642874      0.352964      0.001751
Ti       9.78534     13.65741      2.35787         0.304921      0.043905      0.671730
Ti       9.79292     13.60427     15.51211        -0.102384      0.423410     -0.841975
Ti       9.81937      1.85599      6.84807         0.099458     -0.306801     -0.663129
Ti       9.80608     13.65161      6.78929         0.278795      0.117393     -1.516215
Ti       9.71810      1.88704     11.18528         0.225673     -0.855860     -0.731846
Ti       9.76238     13.56855     11.17007        -0.415643      0.232946      0.613289
Ti       9.68215      5.87486      2.27258         0.523686     -0.067418      1.097425
Ti       9.69870      5.93314     15.62778         0.268659     -1.502375     -0.942727
Ti       9.71024      5.82175      6.83225         0.455331      0.721339     -0.427260
Ti       9.75834      5.79075     11.08763        -0.986503      1.334391      0.892067
Ti       9.85826      9.84462      2.42346        -0.103066     -0.843405     -0.933896
Ti       9.65434      9.79575     15.60506         1.116590     -0.261373     -0.088633
Ti       9.75384      9.79263      6.79419        -0.893929     -0.443125     -1.651470
Ti       9.79401      9.69612     11.16383        -1.106944     -0.121818     -0.431881
O       1.95502      2.03328      0.63183        -0.114776     -0.337204     -0.201743
O       1.86451      1.85179     13.85469         0.135197      0.291027     -2.231818
O       2.06090     13.76075      0.56430        -0.017066     -0.164746      1.010211
O       1.92311     13.49793     13.72282         0.210576      0.290918      0.372289
O      13.65638      2.06831      0.58376        -0.126686     -0.103797      0.461366
O      13.67528      1.87509     13.80183        -0.288650     -0.183080     -1.344332
O      13.62366     13.61435      0.41184         0.286714      0.324357      2.057983
O      13.70681     13.54111     13.70405        -0.276035     -0.040199      0.917128
O       2.02076      1.80271      5.03242         0.057045      0.621601      0.274682
O       1.96500     13.69796      4.79925         0.323912     -0.777931      0.787854
O      13.83995      1.67439      5.16292        -0.497413      0.654932      0.987766
O      13.91456     13.66513      4.99866        -0.632178     -0.330579      0.374195
O       1.96922      1.95194      9.40215         0.274497     -0.153511     -1.212740
O       2.12764     13.63229      9.46249        -0.345602     -0.055281     -0.059064
O      13.67327      1.76014      9.44294        -0.163217      0.446175     -0.288881
O      13.78681     13.57114      9.41404         0.136783     -0.263001     -1.124908
O       1.90233      5.79453      0.64636        -0.055137      0.269555     -0.902709
O       1.90261      5.80636     13.85933         0.058795     -0.083984      0.017742
O      13.71129      5.69105      0.71227        -0.029554      0.017977     -0.316446
O      13.71257      5.93204     13.77901        -0.299203     -0.327834      0.969300
O       2.02269      5.78834      5.01365        -0.112421      0.166072     -0.674376
O      13.54294      5.91707      4.87051         0.122770     -0.216134     -0.043794
O       1.71670      5.89064      9.33701         0.333713     -0.138257     -0.669148
O      13.52193      5.76080      9.35469         0.166253      0.194988      0.027268
O       1.84118      9.71808      0.63183         0.384211      0.193961      0.518193
O       2.08298      9.81072     13.83140        -0.465431     -0.075106      1.056400
O      13.70354      9.62508      0.58089        -0.160513      0.679175     -0.516662
O      13.70441      9.78795     13.85927        -0.045793     -0.103601     -0.034168
O       1.95973      9.72333      5.00554        -0.208664     -0.061146     -0.007241
O      13.69762      9.72085      4.99757         0.077868      0.045302      0.737898
O       1.91412      9.64941      9.45756        -0.241656     -0.023321     -2.268540
O      13.71089      9.60384      9.38504        -0.177957      0.323459     -0.524250
O       6.00894      1.86112      0.54535        -0.284201      0.483920      0.290595
O       5.87900      1.86565     13.88273        -0.231685     -0.121383      0.306244
O       5.91821     13.51965      0.76178         0.033632      0.291938     -2.776632
O       5.72441     13.55122     13.83118         0.839693      0.143672      0.827762
O       5.96507      2.02415      5.04289        -0.198616      0.168025      0.784036
O       6.02035     13.60227      4.96979        -0.341226      0.314496     -0.384083
O       5.76558      1.82686      9.48138         0.305774     -0.016137      0.511348
O       5.90207     13.51554      9.47368         0.106303     -0.115361     -0.030486
O       5.86927      5.84422      0.48641        -0.018480      0.106312     -0.100949
O       5.64744      5.89572     13.93434         0.543302     -0.326318     -1.907458
O       5.92865      5.90151      5.01885        -0.127841     -0.356918      0.296949
O       5.95725      5.94710      9.43653        -0.798017     -0.166176     -0.573286
O       5.79837      9.98347      0.63486         0.406300     -0.358258      0.323231
O       5.98338      9.82246     13.89947        -0.494122     -0.186309     -0.023023
O       5.68709      9.64698      5.01084         0.552656     -0.122045      0.497104
O       5.77238      9.78715      9.31551         0.306697     -0.298268      0.034952
O       9.79913      1.93898      0.57155        -0.061402     -0.324794      0.248097
O      10.03498      1.86269     13.77963        -0.646334      0.445493     -0.223512
O       9.76483     13.79262      0.61661         0.053387     -0.515122     -0.661786
O       9.75754     13.68999     13.70873         0.318066     -0.325467      0.745697
O       9.96728      1.86905      5.04989        -0.321846     -0.150300      0.409975
O       9.92133     13.75985      4.96880        -0.608154     -0.225869      0.854889
O       9.87627      1.80548      9.39783        -0.785786      0.275191      1.338042
O       9.62774     13.46910      9.45763        -0.043089      0.191884     -1.064374
O       9.66361      5.89174      0.56157         0.104533     -0.145351     -1.143063
O       9.76969      6.03549     13.84896         0.203108     -0.371287     -0.223658
O       9.74377      5.81042      5.07016        -0.226509     -0.211698      0.037403
O       9.62582      5.82710      9.35324         0.694742     -0.115457     -0.758707
O       9.86302      9.86708      0.59754        -0.352829     -0.191225      0.613106
O       9.64050      9.73164     13.83217        -0.051799     -0.087532      0.402938
O       9.70963      9.70625      4.97847         0.457703      0.101482      0.864519
O       9.64968      9.78848      9.39006         0.677758     -0.066208      0.187991
O       3.94835      2.04714      2.79887         0.261676     -0.506659     -0.138775
O       3.83844      1.96699     16.01894         0.757076     -0.828754      0.137228
O       4.02621     13.73773      2.86929        -0.893292      0.126373     -0.136788
O       3.94611     13.61322     15.84916        -0.236398      0.046186      0.685638
O      15.59658      2.00791      2.85085        -0.177971     -0.245642     -0.111952
O       0.02343      1.80129     15.95212        -0.359893      0.361773      0.220326
O       0.02927     13.63753      2.68546        -0.181978      0.307375     -0.175786
O      15.58296     13.51459     15.96200         0.244119      0.479874     -0.147983
O       3.99301      2.00661      7.30136        -0.465159     -0.233142     -0.535586
O       3.95569     13.51179      7.12878        -0.104099     -0.234893     -0.180379
O       0.06023      1.82805      7.36738        -0.023519     -0.074657     -0.367708
O       0.07371     13.71414      7.08246         0.582843     -0.439154      0.686648
O       3.86317      1.91093     11.56764         0.408863     -0.040281      0.420694
O       3.91716     13.57280     11.62670         0.206548      0.388533      0.505863
O      15.56504      1.91041     11.50997         0.103687      0.257738      0.524447
O       0.13534     13.47243     11.49851        -1.646581      0.247147      0.360886
O       3.86496      5.68397      2.58934         0.448651      0.649437      0.718405
O       3.81727      5.89309     15.87851         0.653075      0.026760      1.036587
O      15.59120      5.79852      2.76309        -0.361717      0.289712      0.616176
O      15.57830      5.73296     15.94596         0.027644      0.326143      0.684977
O       3.89477      5.81680      7.04728         0.374090     -0.023210      0.713352
O      15.51838      5.79867      7.00412         0.136336     -0.211505      0.405082
O       3.84192      5.78797     11.62362         0.067244      0.241727     -0.221463
O      15.51070      5.78470     11.53232         0.067090      0.020704     -0.020884
O       3.84811      9.80474      2.69239         0.502439      0.064097      0.636967
O       3.82016      9.73313     16.19735         0.764457      0.217516     -0.567848
O       0.04338      9.70678      2.78800        -0.604420      0.479837      0.458333
O      15.57636      9.76330     16.16217        -0.030523      0.514059     -0.672127
O       3.94074      9.72116      7.09308        -1.205707     -0.306486      0.816696
O      15.57651      9.66474      7.14244         0.636809     -0.108780      0.144715
O       3.85806      9.62857     11.52225         0.665074     -0.141173      0.032796
O      15.53874      9.67143     11.65277         0.564961      0.621927     -0.266559
O       7.91648      2.05387      2.75882        -1.104626     -0.084664      0.205340
O       7.74354      1.93894     15.93181         0.890543      0.000596      0.224139
O       7.85220     13.66225      2.82337         0.292932     -0.211334     -0.108525
O       7.89253     13.71767     15.87100        -0.743576     -0.431315      0.518896
O       7.85824      1.82435      7.14676        -0.735559     -0.035931      0.568092
O       7.79160     13.75924      7.08713         1.157061     -0.411132      0.773939
O       7.79172      1.93787     11.65865         0.225446     -0.280591     -0.009676
O       7.76974     13.54169     11.54708         0.417320      0.025623      0.583427
O       7.77002      5.92476      2.63630        -0.494917     -0.399620      0.414213
O       7.79865      5.87863     15.86124        -0.939688     -0.070472      0.575436
O       7.77030      5.83679      7.25626         0.525540     -0.438009     -0.163371
O       7.76733      5.78503     11.46725         0.435138      0.376740      1.002875
O       7.78575      9.88774      2.73880        -0.678026     -0.561717      0.106853
O       7.72805      9.72989     16.08010         1.013735      0.178048      0.277727
O       7.85293      9.64469      7.06617        -0.561176     -0.021463      0.589608
O       7.76993      9.75112     11.54899        -0.560684     -0.025596      0.068874
O      11.76035      1.88875      2.83754        -0.525624     -0.130327     -0.113248
O      11.70336      1.98625     15.98981         0.016028     -0.083644      0.090802
O      11.70376     13.64415      2.77299         0.370225      0.464805     -0.187685
O      11.72375     13.67219     15.94841        -0.716373     -0.202374     -0.058758
O      11.65816      1.75280      7.31711         1.535315      0.650373      0.026865
O      11.67339     13.44799      7.02967         1.078264     -0.048629      0.786989
O      11.70865      1.76253     11.47127        -0.313807      0.679435      0.657809
O      11.70235     13.58546     11.31260         0.220872     -0.135127      0.830890
O      11.65282      5.93427      2.64154        -0.128932     -0.214668      0.689088
O      11.70102      5.84022     15.97631         0.722162     -0.175016      0.317801
O      11.68404      5.68445      7.08708        -0.301788      0.318839      0.587042
O      11.72482      5.98096     11.57571        -1.195332     -0.672718     -0.102746
O      11.78247      9.82407      2.73763        -0.745511     -0.062134      0.174598
O      11.62359      9.69769     15.99581         0.323455     -0.071273      0.037125
O      11.71357      9.67426      7.24305         0.260486      0.538858      0.041611
O      11.69387      9.69353     11.60895        -0.231170      0.152417     -0.136868
O       1.88756      3.86892      2.76558         0.177033      0.452201      0.792897
O       2.00071      3.88614     16.01739        -0.406739     -0.136028     -0.166933
O       1.95348     15.58907      2.70001         0.171066      0.699727      0.346181
O       1.93534     15.50580     15.89403         0.335248     -0.185324      0.156968
O      13.58657      3.84748      2.89655         0.137195      0.689165      0.075195
O      13.76332      3.81960     15.79777        -0.568454      0.445292      0.704799
O      13.71467      0.04317      2.71461         0.009599     -0.789924     -0.075763
O      13.61161     15.54862     15.94198         0.108645     -0.203487     -0.078776
O       1.95309      3.86486      7.13958        -0.039883     -0.245246      0.269657
O       2.23964     15.48682      6.99433        -0.615091      0.775345      0.685486
O      13.60290      3.83813      7.18439         0.215218     -0.644814      0.035933
O      13.58892     15.45354      7.21520         0.302920      0.130372      0.564141
O       1.93344      3.92216     11.50358        -0.132683     -0.586662      0.316086
O       1.91167     15.59082     11.50368         0.194972      0.003100      0.602176
O      13.55054      3.88664     11.55055        -0.113735     -0.566343      0.162925
O      13.73127     15.48455     11.48600        -0.065325      0.013205      0.536259
O       1.92866      7.81432      2.73495         0.432668     -0.553708      0.442809
O       1.85353      7.80953     16.05457         0.203988     -0.105533      0.010910
O      13.55984      7.90874      2.80277         0.799019     -1.104497      0.212448
O      13.79987      7.78159     16.00175        -0.670571     -0.133830     -0.082893
O       1.81338      7.73281      7.18773         0.779706      0.507118     -0.087449
O      13.58924      7.70217      7.03574        -0.073909      0.389880      0.557199
O       1.89072      7.73985     11.58955        -0.164456     -0.314373      0.023409
O      13.67399      7.80409     11.51725        -0.143164     -0.539632      0.335129
O       1.96841     11.78421      2.63268         0.190306     -0.757575      0.710880
O       1.93349     11.69608     16.11710         0.245959      0.215523     -0.441285
O      13.71194     11.79941      2.78753         0.097689     -0.314426     -0.153051
O      13.52670     11.70399     16.06556         0.436638     -0.552280     -0.304770
O       1.96635     11.70096      7.11545        -0.478541     -1.191359      0.054759
O      13.86451     11.57123      7.17976        -0.904403      0.962345      0.076717
O       2.01681     11.60421     11.43126        -0.132460     -0.052348      0.671609
O      13.57571     11.59590     11.54908         0.375000      0.749579     -0.021977
O       5.86934      3.92288      2.75922         0.454376      0.330215     -0.169107
O       5.79133      3.88479     16.04800         0.227824      0.016758     -0.162672
O       6.02083      0.11587      2.80034        -0.487597     -0.147061     -0.119850
O       5.93548     15.53112     16.09464        -0.515741     -0.212282     -0.190924
O       5.96234      3.85648      7.31174        -0.372921      0.436087     -0.328963
O       5.78881     15.52536      7.02400        -0.060593      1.219938      0.889679
O       5.89701      3.90325     11.45150        -0.411162     -0.749741      0.970895
O       5.88031     15.48567     11.56607        -0.164667      0.377553      0.518150
O       5.66363      7.80806      2.72396         0.661482     -0.139572     -0.210142
O       5.82475      7.87667     16.07468        -0.169910     -0.601616      0.060039
O       5.86555      7.73660      7.23461        -0.160099      0.005876      0.071142
O       5.81859      7.73510     11.65845        -0.096945      0.598074     -0.253487
O       5.83187     11.76872      2.84952        -0.072257     -0.636503      0.371678
O       5.89291     11.66979     16.04421        -0.075781      0.988674      0.319990
O       5.94907     11.68192      7.03690         0.053192     -0.623084      0.832637
O       5.67886     11.57373     11.61311         0.913016      0.264778     -0.253227
O       9.79823      3.85198      2.71919         0.069972      1.138028      0.399631
O       9.72283      3.90118     15.88503         0.016977     -0.358878      0.294057
O       9.63121      0.00921      2.69629         0.776437     -0.425922      0.228688
O       9.78774      0.04594     15.87949        -0.078591     -0.481812      0.541783
O       9.77110      3.70714      7.26936        -0.267555      1.536685      0.040758
O       9.80652     15.51678      7.35954        -0.273796     -0.474929     -0.151705
O       9.65954      3.93192     11.49130         1.010982     -0.883936      0.516855
O       9.78302     15.54261     11.62012        -0.554056     -0.057234     -0.205787
O       9.60603      7.88938      2.69025         0.688099     -0.504402      0.319142
O       9.76562      7.70799     16.14225        -0.580388      2.047886      0.036462
O       9.79021      7.75945      7.09347         0.161629     -0.561976      0.705093
O       9.67892      7.79109     11.50848         0.252184     -0.205792      0.120118
O       9.82710     11.67792      2.81320        -0.286918      1.356327      0.048422
O       9.71453     11.69242     15.89574         0.030994      0.217701      0.156916
O       9.68828     11.71048      7.12985         0.057717     -0.399536      0.383661
O       9.67122     11.63690     11.61856         0.666549      0.271845      0.151956
