  # total energy = -7878.19977645 
CRSYTAL
PRIMVEC
    15.2000000000000000    0.0000000000000000    0.0000000000000000
     0.0000000000000000   15.2000000000000000    0.0000000000000000
     0.0000000000000000    0.0000000000000000    17.000000000000000
PRESSURE
7.87308 7.67868 3.00953 -0.334388 0.078736 -0.114654
PRIMCOORD
320 1
Pb       3.85407      3.61571      4.14411         0.182528      0.512110     -0.055187
Pb       3.72875      3.67716     16.84569         0.084158      0.403989      0.469700
Pb       3.86258     15.07858      4.09945        -0.176156     -0.070026      0.454828
Pb       3.59096     15.18162     16.87556         0.419424     -0.191100      0.812489
Pb       0.01136      3.49833      4.14763        -0.057999      1.229023      0.596888
Pb      15.12708      3.86362      0.01057         0.027664     -0.754918      0.176863
Pb      15.12727     15.02636      4.28578         0.377194      0.141787     -0.717724
Pb      15.02091     15.19733      0.12268         0.518608      0.231610     -0.444371
Pb       3.61947      3.96826      8.58741         0.595019     -0.626247     -0.589029
Pb       3.80688     15.12712      8.53633        -0.025942      0.656400     -0.606953
Pb       0.08872      3.78237      8.51180        -0.390152      0.314277     -0.450032
Pb      15.19545      0.00906      8.22777         0.385048     -0.432611      1.018086
Pb       3.72307      3.81837     12.68333         0.057932     -0.239285     -0.226023
Pb       3.68510      0.09540     12.78264        -0.320627      0.072010     -0.158232
Pb      15.03008      4.04611     12.71839         0.251683     -1.136985     -0.077272
Pb      15.10798      0.13929     12.75629         0.391633     -0.751455      0.113574
Pb       3.85242      7.48076      4.14223         0.011010     -0.283993      0.587649
Pb       3.64760      7.53483     16.78977         0.568846     -0.899421      0.643449
Pb       0.00691      7.57701      4.29652        -0.284859     -0.662762     -0.255502
Pb      14.92989      7.53385      0.06399         0.942443      0.005681     -0.381904
Pb       3.83949      7.61693      8.53603         0.221414     -0.191529     -0.253635
Pb       0.13319      7.63613      8.45873        -0.343540     -0.209539     -0.288593
Pb       3.77326      7.70292     12.78602        -0.139894     -0.321142     -0.215615
Pb       0.04293      7.71132     12.75663        -0.578483     -0.194602      0.187673
Pb       3.96026     11.16843      4.13489        -0.270571      0.596409      0.509106
Pb       3.73337     11.38485     16.97082         0.041130     -0.162448      0.039619
Pb       0.16491     11.24521      4.17355        -0.237885      0.399301      0.405014
Pb      15.06807     11.36232      0.05118         0.263559      0.028847     -0.396868
Pb       3.82191     11.40318      8.53856         0.492863     -0.414191     -0.545627
Pb       0.20651     11.45572      8.32335        -1.062744     -0.309616      0.162287
Pb       3.81050     11.53425     12.74262        -0.529125     -0.470132     -0.188943
Pb       0.05190     11.46137     12.88201        -0.022815      0.253431     -0.444070
Pb       7.56379      3.77034      4.38586         0.191071      0.138174     -0.761579
Pb       7.55040      3.73451     16.86847        -0.396556     -0.028009      0.178895
Pb       7.60925     15.09877      4.21668        -0.203052      0.100843      0.494790
Pb       7.58351      0.00746     16.85104        -0.048618     -0.575052      0.589653
Pb       7.34167      3.72456      8.78075         0.361057      0.324378     -0.548617
Pb       7.61454      0.02860      8.62591        -0.103950     -0.155370     -0.607455
Pb       7.67245      3.89656     12.76522        -0.313557     -0.928756     -0.242650
Pb       7.48130     15.00448     12.78678         0.923285      1.142032     -0.049860
Pb       7.61270      7.54420      4.03922        -0.405833     -0.781275      1.624055
Pb       7.74772      7.61690      0.01411        -0.278668     -0.057662     -0.492820
Pb       7.48247      7.57460      8.53186         0.332253     -0.333651      0.132109
Pb       7.49936      7.65098     12.66076         0.790296      0.133960      0.654722
Pb       7.63747     11.41835      4.33587        -0.435997     -0.270804      0.148858
Pb       7.47822     11.36388     16.92291         0.454913      0.160852     -0.001110
Pb       7.70391     11.35957      8.69278        -0.399372     -0.032770     -0.796062
Pb       7.63469     11.50147     12.78699         0.337607     -0.650918     -0.478614
Pb      11.21895      3.77170      4.44129         0.131912     -0.102724     -0.775553
Pb      11.24293      3.71542     16.97411         0.640063     -0.188510      0.141899
Pb      11.29929     15.15682      4.25866         0.340163     -0.004447     -0.102288
Pb      11.32920      0.15704      0.10929         0.221582     -0.281213     -0.286216
Pb      11.40275      3.87597      8.51829        -0.045276     -0.498577     -0.172281
Pb      11.52712      0.01414      8.37897        -0.449205     -0.355246      0.666053
Pb      11.35396      3.84300     12.65913         0.418773     -0.246253     -0.096411
Pb      11.44107     15.19040     12.58703        -0.688607      0.229648      0.422516
Pb      11.26475      7.50301      4.31224         0.450688     -0.293616     -0.513200
Pb      11.44705      7.64061      0.00017        -0.772070     -0.020783      0.466043
Pb      11.40696      7.58832      8.62025         0.047323     -0.253253     -0.609615
Pb      11.53143      7.76393     12.82314        -0.108435     -0.741059     -0.631930
Pb      11.29002     11.34943      4.27230         0.534835      0.181524      0.183727
Pb      11.36675     11.40757      0.01883        -0.538930     -0.265478     -0.054858
Pb      11.48736     11.33451      8.32902        -0.013892      0.720192      0.382267
Pb      11.44689     11.52520     12.55568        -0.233820      0.024081      0.930476
Ti       1.92254      1.80134      2.28114        -0.087711     -1.010576     -0.663582
Ti       1.71979      1.84190     14.96448         0.282383     -0.353177      0.358162
Ti       1.95809     13.17266      2.11798         0.221342      0.938325      1.342872
Ti       1.82254     13.22262     15.02960        -0.829207      0.364978     -0.641472
Ti      13.26091      1.83496      2.32928        -0.841186      0.133120     -0.547250
Ti      13.29466      1.90062     14.90050        -0.448831     -0.577540      0.771729
Ti      13.33263     13.22940      2.25701        -1.041214      0.003587      0.199326
Ti      13.19590     13.27556     15.02213         1.010495      0.751759      0.543364
Ti       1.94941      1.81821      6.36386         0.825766      0.652693      0.910304
Ti       1.98489     13.26759      6.33092         0.279677     -0.153821      0.657892
Ti      13.33189      1.92096      6.59301        -0.879552      0.966199     -0.779865
Ti      13.31444     13.27234      6.38827        -0.119914     -1.160692      0.007311
Ti       1.77125      1.90577     10.67703         0.503386     -0.125398      0.632304
Ti       1.87118     13.34879     10.73881        -0.935452      0.158864      0.745338
Ti      13.33023      1.85611     10.65700        -0.663425      1.708751     -0.422230
Ti      13.36097     13.36785     10.65002        -0.090225     -0.787804     -1.274072
Ti       1.90134      5.60960      2.23168        -0.275434     -0.692372     -0.235552
Ti       1.80523      5.57103     14.90753        -0.052356     -0.031365      0.494044
Ti      13.32189      5.57723      2.24975        -0.873055     -0.016321      1.544525
Ti      13.17253      5.64210     14.99916         2.056739     -0.432448     -1.048524
Ti       1.94178      5.67013      6.33676         0.396868     -0.645865     -0.753294
Ti      13.36022      5.69820      6.41749         0.128176     -0.387425      0.994965
Ti       1.86493      5.76885     10.78800         0.371128     -1.258673      0.286623
Ti      13.30912      5.78880     10.66868         0.029221     -0.289865     -0.087539
Ti       1.89537      9.34902      2.14211         1.082538      0.473099      1.020122
Ti       1.80626      9.41803     15.05716        -0.418417      0.456703     -0.537537
Ti      13.24561      9.45242      2.37947        -0.441164     -0.845688     -0.370846
Ti      13.22401      9.50776     15.04017        -0.102387     -0.035316      1.066555
Ti       1.99886      9.43861      6.40188        -0.503567      0.444664     -0.341113
Ti      13.26004      9.41052      6.47912         1.188491      0.643385     -0.011022
Ti       1.91669      9.55145     10.80777         0.181795      0.028639      0.298559
Ti      13.33561      9.59762     10.64591         0.977781     -0.438310      1.134752
Ti       5.75412      1.76595      2.18422        -0.569769      0.975045     -0.211269
Ti       5.60021      1.76670     15.01788         0.713934      0.530821     -1.777187
Ti       5.76902     13.16142      2.22777        -0.131225      0.163264     -1.244072
Ti       5.60052     13.21579     14.90223         0.408675      0.187519      1.815849
Ti       5.69829      1.85999      6.54018        -0.966680      0.259899      0.379234
Ti       5.73366     13.24496      6.57037         0.333033     -0.189193     -0.683609
Ti       5.62028      1.83672     10.75996         0.245602      2.059324     -0.058316
Ti       5.69671     13.35323     10.72316        -0.209309     -0.573650     -0.889956
Ti       5.65340      5.63674      2.06786         0.679635     -1.023471     -0.472027
Ti       5.70955      5.63257     14.87386        -0.065076      0.187892      0.603312
Ti       5.74387      5.61872      6.47981        -0.088389      0.439462      0.754015
Ti       5.74147      5.74270     10.93659        -1.288892     -0.665513     -0.871271
Ti       5.65325      9.35450      2.15462        -0.003263      0.339422     -0.044376
Ti       5.64018      9.45428     14.89151         0.238073     -0.110954     -0.614244
Ti       5.74005      9.41761      6.51706        -0.115790      0.590377     -0.290404
Ti       5.71124      9.59756     10.81761        -0.387360     -0.585163     -0.287350
Ti       9.44511      1.79180      2.31639         0.903661      0.863994      0.068226
Ti       9.47414      1.87218     14.85227         0.314962     -0.832456     -1.045634
Ti       9.48490     13.21090      2.19505         0.246823      0.038125      0.237852
Ti       9.50506     13.32245     14.96739        -0.249663     -0.483005     -0.270418
Ti       9.44095      1.86906      6.57300         0.018258      1.227728     -0.650112
Ti       9.47948     13.31156      6.54336        -0.223674     -0.603501      0.825642
Ti       9.46908      1.85790     10.66554        -0.561130     -0.093678      0.833674
Ti       9.53102     13.27003     10.61844         0.396230      0.351297     -0.265267
Ti       9.46884      5.59791      2.13375         0.639767     -0.785059      0.790095
Ti       9.50230      5.71566     14.96461        -0.431136      0.433732     -1.231862
Ti       9.55290      5.70427      6.60680        -1.471397     -0.726086      0.023012
Ti       9.54962      5.67202     10.79110         0.063224     -0.063155     -0.365747
Ti       9.38674      9.44412      2.35443         1.091949     -0.356311     -1.514921
Ti       9.39336      9.52372     14.84282         0.788929     -0.298204      1.729377
Ti       9.46658      9.45427      6.59925        -0.508395     -0.000568     -0.796765
Ti       9.58986      9.43519     10.72927        -1.128237      1.194718     -0.664324
O       1.76520      1.65432      0.52475         0.429766      0.440663     -0.725585
O       1.71992      2.03003     13.22815         0.208740     -0.640329     -0.539982
O       1.91850     13.21659      0.37213        -0.183848     -0.128277     -0.489464
O       1.84439     13.27249     13.22364         0.038245     -0.381545      0.204743
O      13.24808      1.82875      0.53143        -0.359802     -0.278425      0.196272
O      13.31254      1.90972     13.12161        -0.303226      0.002833      0.086536
O      13.30219     13.15066      0.44755        -0.131528      0.201671      0.602892
O      13.17611     13.35630     13.26964         0.082838     -0.385076     -0.616430
O       2.08726      1.77873      4.59519        -0.362034      0.220310     -0.434243
O       2.10553     13.27254      4.58073        -0.474556     -0.548871      0.050090
O      13.13904      1.95957      4.82559         0.382763     -0.144822     -0.477375
O      13.23576     13.23419      4.63219         0.559732      0.253005     -0.644233
O       1.75586      1.89523      8.90756         0.118918     -0.344963     -0.274468
O       1.72573     13.28616      8.96170         0.594964      0.149007      0.236687
O      13.49207      1.80411      8.87255        -0.371078      0.061893     -0.214356
O      13.33306     13.31997      8.83931         0.367957     -0.017411      0.460975
O       1.93177      5.54906      0.41151        -0.322059      0.219844      0.459665
O       1.76989      5.53417     13.13075         0.200994      0.028559     -0.313647
O      13.21591      5.58373      0.47186         0.546707      0.266404     -0.548452
O      13.30174      5.58689     13.15711        -0.710231      0.662565      1.331408
O       1.97249      5.55534      4.52520         0.272436      0.434830      1.268256
O      13.17431      5.65723      4.68022         0.357814     -0.263910     -0.150508
O       1.90849      5.72930      9.00386        -0.113618      0.397362     -0.177198
O      13.43334      5.98543      8.89680        -0.462522     -0.536021      0.330482
O       1.98069      9.45548      0.39428        -0.268424     -0.647025     -0.815377
O       1.76911      9.54023     13.24847         0.251604     -0.256992      0.370164
O      13.32480      9.41268      0.50817        -0.417910     -0.081223      1.213141
O      13.30417      9.56661     13.31776        -0.251599     -0.205590     -1.264205
O       2.02769      9.60999      4.60769        -0.198349     -0.601029      0.650072
O      13.20733      9.33827      4.73097         0.362613      0.176144     -1.563532
O       2.02504      9.41379      9.04832        -0.326339      0.438956     -0.436970
O      13.36043      9.50100      8.91203        -0.076965     -0.157115     -0.484278
O       5.68729      1.85211      0.40692         0.389832     -0.313750     -0.612461
O       5.59856      1.65735     13.18860         0.381910      0.669845      1.022975
O       5.85674     13.16477      0.41205        -0.274433     -0.035503      0.639372
O       5.78087     13.18936     13.14183        -0.545531      0.342733     -0.939104
O       5.65958      1.94396      4.75555         0.242137     -0.098050     -0.439409
O       5.75787     13.19855      4.73135         0.135057     -0.060124      0.759955
O       5.53400      1.86694      8.94722         0.341130     -0.175121      0.542073
O       5.74874     13.42982      8.92010        -0.739654     -0.072524      1.008835
O       5.63169      5.63819      0.24529         0.346586      0.058116      0.841030
O       5.88961      5.61047     13.06910        -0.696754      0.288744      1.037747
O       5.70635      5.66410      4.72021         0.149864     -0.245357     -0.294626
O       5.68184      5.76940      9.14938        -0.037017      0.001446     -0.438166
O       5.55928      9.34704      0.39559         0.345117     -0.032301     -0.545005
O       5.77139      9.70130     13.07729        -0.477964     -0.573270      1.159521
O       5.75701      9.29842      4.72040        -0.245393      0.496583      0.280090
O       5.64193      9.56703      9.04793        -0.226622     -0.573972     -0.653845
O       9.53529      1.78259      0.51365         0.032825      0.293620     -0.779133
O       9.52461      1.62431     13.06082        -0.271983      0.914063      1.100392
O       9.39125     13.24147      0.44247         0.035415     -0.389278     -0.639887
O       9.61218     13.32134     13.16797        -0.432391     -0.093014      0.330648
O       9.41308      1.80448      4.66003         0.106331     -0.059226      1.555446
O       9.41916     13.24538      4.75700        -0.119703      0.141350     -0.056013
O       9.32363      2.00240      8.91345         0.647789     -0.066118     -0.482772
O       9.56276     13.20795      8.83003        -0.011673      0.054076      0.625617
O       9.36122      5.60890      0.35736         0.419573     -0.103510     -0.758288
O       9.48676      5.78344     13.13319         0.324727     -0.232941      0.986622
O       9.38986      5.61240      4.82138         0.459745      0.380335     -0.206009
O       9.57540      5.54256      9.01014        -0.008696      0.350076     -0.119235
O       9.52197      9.45505      0.53541        -0.538057     -0.205951      0.973508
O       9.48751      9.55336     13.10623         0.152141     -0.318784     -0.916262
O       9.50054      9.39789      4.73498        -0.196057     -0.040204      0.867364
O       9.63913      9.72325      8.88365        -0.449807     -0.985902      1.675430
O       3.88019      1.79241      2.35326        -0.699238     -0.072215      1.011656
O       3.75195      1.72166     15.21381        -1.123563      0.570827      0.516215
O       3.92149     13.21196      2.38234        -0.944258      0.132785      0.411306
O       3.69116     13.20686     15.33847         1.515363     -0.102337     -0.159298
O      15.18534      1.73320      2.59912        -0.258535     -0.174566      0.545860
O      15.11807      1.78156     15.49012        -0.368332      0.218237     -0.440821
O       0.02184     13.30649      2.57890         0.196801     -0.822208     -0.028176
O      15.16699     13.07729     15.37130        -0.923765      0.038392     -0.021943
O       3.73777      1.89914      6.85785         0.468404     -0.347763      0.100132
O       3.84085     13.35911      6.87356        -0.367033     -0.297751      0.196765
O       0.05373      1.91375      6.65957        -0.342853     -0.205538      0.245582
O       0.02457     13.27832      6.65381         0.534264     -0.264765     -0.025230
O       3.68897      1.77059     11.07161         0.339728      0.274055      0.225596
O       3.75006     13.48178     11.08982         0.564480     -0.533391     -0.227835
O      15.11604      1.89117     11.12362         0.907688      0.142002     -0.035624
O      15.14633     13.25840     11.20234         0.480914     -0.018551     -0.247252
O       3.82663      5.60836      2.48152        -0.344765      0.159640      0.152453
O       3.75808      5.50054     15.14578        -0.079046      0.418357     -0.075783
O       0.02166      5.45937      2.76413        -0.297527      0.803663     -0.999675
O      15.12858      5.51551     15.33210        -0.564448      0.281618      0.125355
O       3.84988      5.81284      6.82660        -0.613372     -0.346262      0.237073
O       0.11042      5.59021      6.70587        -1.163922      0.867029      0.129786
O       3.79093      5.70352     11.17630        -0.609031      0.405298      0.277369
O      15.14319      5.78767     11.09706         1.065529     -0.210278      0.020354
O       3.81224      9.37893      2.65873        -0.174106     -0.300385     -0.606027
O       3.71636      9.26090     15.33116         0.272344      0.687852     -0.841248
O       0.13357      9.42940      2.69008        -2.030492      0.219152     -0.260835
O      15.12816      9.47310     15.48574        -0.065375     -0.095610     -0.148578
O       3.86120      9.49951      6.80778        -0.867399     -0.246919      0.372912
O       0.07431      9.48338      6.68107         0.020510      0.125627      0.354966
O       3.79803      9.46189     11.23479        -0.797321      0.175033      0.094466
O       0.03822      9.59931     11.14672        -1.112839     -0.300125     -0.265325
O       7.61324      1.77882      2.51067        -0.521266     -0.093104      0.502167
O       7.56394      1.78629     15.30147         0.382047      0.333206     -0.202002
O       7.61140     13.22533      2.67440         0.582318     -0.159491      0.050161
O       7.54902     13.20746     15.27258        -0.093337     -0.061936     -0.326009
O       7.53346      2.02449      6.92648         1.099777     -0.418121     -0.160614
O       7.59800     13.29254      7.05044         0.231316      0.236724     -0.746068
O       7.55349      2.09996     10.86669        -0.220590     -0.733261      0.671353
O       7.58409     13.23375     10.97526        -0.055925      0.135356      0.433574
O       7.64418      5.60788      2.51805        -1.375800      0.108562     -0.040445
O       7.62776      5.54368     15.24930        -0.342422      0.202759      0.102844
O       7.62000      5.70369      6.94194        -0.403953     -0.211082      0.149370
O       7.61709      5.61070     11.12995         0.672264      0.671830     -0.173364
O       7.52422      9.36844      2.61131         0.584867      0.036079     -0.509477
O       7.51451      9.44816     15.27441         0.290297     -0.081138      0.110285
O       7.57348      9.42246      6.98935         0.870229      0.419042     -0.060325
O       7.55821      9.64566     11.08678         1.907711     -0.463874     -0.146753
O      11.33014      1.81759      2.74203         1.045116     -0.116708     -0.346184
O      11.39618      1.84595     15.42282        -0.273811     -0.310481     -0.429021
O      11.37391     13.20767      2.57874         0.192450     -0.636343     -0.033216
O      11.32390     13.21349     15.38249         0.298332      0.142352      0.296719
O      11.38040      1.91012      7.03616         0.216936     -0.049891     -0.448255
O      11.43851     13.23788      6.64236        -1.006871      0.136484      0.718849
O      11.33872      1.87181     10.93126         1.374779      0.027356      0.062226
O      11.40772     13.50313     10.94725         0.327151     -0.919977      0.302792
O      11.37134      5.58627      2.58348        -0.001075      0.161587     -0.044702
O      11.39842      5.65538     15.43570        -1.022585      0.070616     -0.265442
O      11.42594      5.71953      6.86536         0.459665      0.318060      0.275902
O      11.45604      5.75078     11.16351        -0.293876     -0.158090     -0.237647
O      11.39265      9.36731      2.76626         0.031672      0.136916     -0.761174
O      11.27732      9.32793     15.44038         1.176885      0.711620     -0.747944
O      11.40793      9.43327      6.94435        -0.550584     -0.085995     -0.417343
O      11.42036      9.43315     11.05952         0.548118      0.375390      0.115234
O       1.90517      3.67063      2.51159         0.272925      0.046706      0.235209
O       1.69056      3.64469     15.40757         1.130302      0.760854      0.074332
O       1.93452     15.07881      2.59995         0.292641     -0.398050      0.006274
O       1.79226     15.09017     15.38965        -0.113038      0.675052     -0.338588
O      13.33092      3.68001      2.56415        -0.139722      0.244935      0.331123
O      13.27129      3.72511     15.32472        -0.320062      0.372797      0.080566
O      13.24390     15.10255      2.65130         0.080670     -0.089762      0.034791
O      13.38726     15.15826     15.33955        -0.792241     -0.256576      0.061579
O       1.89029      3.81002      6.80827         0.694133     -0.339613      0.075178
O       1.89526     15.10978      6.77708         0.073553      0.736469     -0.218897
O      13.30542      3.83139      7.02054         0.090445     -0.112033     -0.356636
O      13.28671     15.19727      6.72751         0.150528     -0.321253      0.136386
O       1.91590      3.75895     10.91091        -0.155165      0.833888      0.468724
O       1.77082      0.02280     11.24990        -0.064922     -0.395969     -0.644458
O      13.40297      3.83913     10.90714        -0.819752     -0.173574     -0.006646
O      13.37998      0.02168     11.01672        -0.280956     -0.273666      0.287304
O       1.84441      7.48407      2.59808         0.309041      0.362958     -0.343614
O       1.66274      7.39929     15.19687         0.755051      1.435127      0.466294
O      13.36009      7.45534      2.66559         0.335757      1.064924     -0.378337
O      13.33861      7.53398     15.40893        -0.548258      0.008815     -0.322594
O       1.88415      7.59777      6.86537         0.410597     -0.289698     -0.539194
O      13.36972      7.56970      6.73654         0.149637     -0.477556      0.545826
O       1.82898      7.56163     11.27375         0.499821      1.388705     -0.376731
O      13.32534      7.65491     11.18891        -0.121592      0.979971     -0.155896
O       2.08010     11.30294      2.45160        -0.730156      0.152870      0.178728
O       1.87034     11.29567     15.35133         0.332172     -0.391618      0.172342
O      13.26117     11.30599      2.67296         0.530104     -0.092096     -0.182670
O      13.16945     11.34251     15.43601         0.095169     -0.080870     -0.023330
O       1.97327     11.37433      6.86085         0.221492      0.241725     -0.256748
O      13.31963     11.31212      6.67030         0.008352      0.914877      0.511200
O       1.89514     11.42009     11.17885         0.456397      0.504665     -0.349092
O      13.19680     11.47671     11.04019         0.132769     -0.755875     -0.225986
O       5.72364      3.77079      2.52427         0.175715     -0.526157      0.034995
O       5.65263      3.71522     15.28689         0.215644     -0.396433     -0.147377
O       5.79768     15.10409      2.76507        -0.189713      0.054652     -1.115993
O       5.58034     15.04718     15.35982         0.588668      0.404804     -0.225872
O       5.64858      3.79272      6.98439        -0.169530      0.455915     -0.339076
O       5.77931      0.00705      6.87757        -0.305928     -0.221469     -0.049722
O       5.65521      3.80929     11.16066        -0.430675     -0.669910     -0.071999
O       5.73018      0.06327     11.21374         0.256625     -1.865184     -0.546414
O       5.64600      7.49490      2.60398         0.397226     -0.455324     -0.487289
O       5.71312      7.54743     15.07965        -0.174807     -0.701696      0.087046
O       5.74915      7.61548      7.02753        -0.383535     -1.024689     -0.240866
O       5.69350      7.69221     11.27165        -0.065834     -0.997548     -0.343152
O       5.79015     11.22179      2.51539        -0.204750      0.929652      0.201059
O       5.56425     11.30307     15.20692        -0.024470      0.676721      0.683326
O       5.68121     11.34146      6.96616         0.158769      0.719852     -0.253754
O       5.58946     11.43758     10.92753        -0.444509      1.852875      0.644957
O       9.49566      3.67641      2.64626        -0.233297      0.882369     -0.182885
O       9.57329      3.72667     15.03484        -0.164270      0.477511      0.725868
O       9.60371     15.05419      2.48597        -0.687775      0.555918      0.646399
O       9.45645     15.17601     15.25784         0.124653     -0.290716      0.540144
O       9.63467      3.75683      6.73537        -0.179327      0.188430      0.271925
O       9.54037      0.02917      6.99131        -0.421446     -0.749685     -0.508819
O       9.54139      3.81374     11.20370         0.091498     -0.517737     -0.134883
O       9.42839     15.14109     10.97820        -0.553463      0.628046     -0.211571
O       9.42171      7.48297      2.53020         0.578840      0.407581      0.054098
O       9.49617      7.58934     15.31340        -0.587714     -0.456625      0.176644
O       9.45090      7.58834      7.02576         0.532458      0.175873     -0.046018
O       9.58016      7.57299     10.97432        -0.662696      1.121225      0.096382
O       9.42145     11.28427      2.73490         0.234669      0.558344     -0.348269
O       9.44502     11.30530     15.36138         0.096398      0.800807     -0.201741
O       9.34010     11.37884      6.86239         0.882748     -0.020356     -0.520093
O       9.56677     11.42624     11.14679        -0.007269     -0.274828     -0.502878
