  # total energy = -7879.34203052 
CRSYTAL
PRIMVEC
    15.2000000000000000    0.0000000000000000    0.0000000000000000
     0.0000000000000000   15.2000000000000000    0.0000000000000000
     0.0000000000000000    0.0000000000000000    17.000000000000000
PRESSURE
7.83166 7.64802 1.83774 -0.113056 -0.039109 0.062168
PRIMCOORD
320 1
Pb       3.67506      3.94588      4.37495         0.100846     -0.505488     -0.854376
Pb       3.79077      3.88883      0.07129         0.000004     -0.187553     -0.409940
Pb       3.70804      0.11124      4.37213        -0.081222      0.185573     -0.497349
Pb       4.00873     15.18225      0.06879        -0.569647      0.028994     -0.143839
Pb      15.16185      4.09275      4.35123         0.148247     -1.025721     -0.749121
Pb      15.15250      3.78436     16.91577         0.414398     -0.084326      0.291525
Pb       0.06620      0.15811      4.21329        -0.673445     -0.061007     -0.094935
Pb       0.11860     15.17127     16.88660        -0.472305     -0.229195      0.121520
Pb       3.93399      3.60939      8.51750        -0.256999      0.728074     -0.691027
Pb       3.80588     15.11475      8.44451        -0.136583      0.129781     -0.270772
Pb      15.11388      3.76226      8.44258        -0.046892     -0.348230      0.681034
Pb       0.00922     15.15467      8.70967        -0.739484      0.201891     -0.809731
Pb       3.79419      3.75813     12.74589         0.274484      0.115017     -0.039647
Pb       3.86575     15.04436     12.76284        -0.093290      0.178600      0.080535
Pb       0.16531      3.57712     12.81722        -0.414469      0.212048     -0.455548
Pb       0.04393     15.03819     12.69928        -0.083276      0.638470      0.020220
Pb       3.70686      7.63817      4.33701        -0.383423      0.068025     -0.096068
Pb       3.86891      7.70990      0.26014        -0.121338     -0.413139     -1.055573
Pb      15.12930      7.65683      4.16887         0.519687      0.285036      0.247564
Pb       0.14582      7.61289     16.96108        -0.709207     -0.362055     -0.235635
Pb       3.75889      7.50519      8.46512         0.305587      0.177508     -0.077626
Pb      15.00497      7.55590      8.51054         0.524687     -0.169270     -0.211060
Pb       3.69731      7.52164     12.74984         0.328437      0.030389     -0.403281
Pb      15.10365      7.43647     12.75379         0.432231      0.254999     -0.196811
Pb       3.56626     11.66090      4.31494         0.363237     -1.086633      0.368794
Pb       3.95340     11.41960      0.02541        -0.479657      0.033280      0.202581
Pb      14.94309     11.58561      4.33375         0.628150     -0.599027     -0.271000
Pb       0.05664     11.45145     16.90464        -0.192990      0.218655      0.052090
Pb       3.77101     11.44927      8.41045         0.006271     -0.573201      0.345181
Pb      15.03567     11.25732      8.64471         0.024217      0.677267     -0.417830
Pb       3.65063     11.21650     12.81956         0.227043      0.269807     -0.337461
Pb      15.11785     11.29642     12.58557         0.150961     -0.002962      0.354069
Pb       7.58881      3.76952      4.12104         0.441043     -0.194554     -0.005327
Pb       7.67348      3.87358      0.07322        -0.579255     -0.262039     -0.117731
Pb       7.51478      0.00877      4.22414         0.868810     -0.063484     -0.002446
Pb       7.57301     15.11274      0.09885         0.060317     -0.054443     -0.564395
Pb       7.80908      3.79257      8.20292        -0.681785      0.221435      0.648341
Pb       7.50637     15.13065      8.43893         0.863937     -0.002784     -0.030904
Pb       7.45080      3.69357     12.66389         0.204861      0.613958      0.185742
Pb       7.60015      0.15006     12.67905        -0.286070     -0.291402      0.266192
Pb       7.65047      7.55914      4.40643        -0.044070      0.241694     -0.856367
Pb       7.53208      7.56673     16.99594         0.166452      0.418776     -0.096174
Pb       7.62471      7.60441      8.43954         0.065510      0.076356      0.332069
Pb       7.59934      7.54142     12.76862        -0.342319     -0.192220     -0.604219
Pb       7.52489     11.29578      4.11854         0.332260      0.428327      0.274825
Pb       7.65181     11.42613      0.06460        -0.122233     -0.086696      0.029652
Pb       7.43953     11.44971      8.30741         0.554777     -0.457713      0.568108
Pb       7.49933     11.33814     12.70504         0.018504     -0.326960     -0.000881
Pb      11.48290      3.87651      4.04071        -0.596419     -0.606878      0.143301
Pb      11.49945      3.84477     16.99715        -0.610297     -0.213591      0.074135
Pb      11.46796      0.00606      4.24299         0.019976      0.417345     -0.294746
Pb      11.38356     15.08149     16.94197         0.309046      0.202320     -0.139637
Pb      11.40324      3.65788      8.41294         0.095287      0.282402     -0.085485
Pb      11.21734     15.12040      8.65719         0.627971      0.395598     -0.726623
Pb      11.39145      3.73534     12.72764        -0.078972      0.266808      0.043086
Pb      11.29973      0.07697     12.86516         0.361211      0.067225     -0.437660
Pb      11.54128      7.55959      4.11474        -0.765618      0.397514      0.003183
Pb      11.34308      7.58255     16.95019         0.165766     -0.330018     -0.652790
Pb      11.40405      7.59925      8.36447        -0.766713      0.026483      0.950235
Pb      11.27444      7.48438     12.63477        -0.037724     -0.079178      0.479890
Pb      11.46310     11.47716      4.20076        -0.153572     -0.531884     -0.020068
Pb      11.47118     11.29093     16.93893        -0.306962      0.402458      0.157640
Pb      11.25179     11.46023      8.66238         0.263936     -0.346385     -0.662407
Pb      11.29394     11.13785     12.91107         0.252182      0.389641     -0.478974
Ti       1.85056      1.92971      2.14425         0.168679      0.378325      0.482276
Ti       1.94746      1.81706     15.04779         0.491035      0.700836     -0.042726
Ti       1.77458     13.36268      2.34088         0.828555     -0.917816     -0.863421
Ti       1.97064     13.25456     14.96474        -0.332525     -0.476694     -1.360342
Ti      13.30706      1.89909      2.12138         0.174442     -0.571748     -0.141848
Ti      13.28244      1.87636     14.98031         0.608153     -0.711487      0.361424
Ti      13.29863     13.32760      2.08476         0.190097     -0.264656     -0.048022
Ti      13.29639     13.28874     14.84252         0.809770      0.022956      1.291467
Ti       1.80924      1.92801      6.46057         0.287931     -0.845430      0.371079
Ti       1.81316     13.34476      6.60351        -0.374788     -0.961888     -0.670981
Ti      13.28739      1.89849      6.39777        -0.336652     -1.170487     -0.112431
Ti      13.29695     13.33245      6.63922         0.081284      0.308194      0.033524
Ti       1.97351      1.84376     10.67856        -1.430934      0.316773      0.790480
Ti       1.95403     13.28969     10.74308         0.391802     -0.469286      0.640469
Ti      13.27845      1.88484     10.77665         0.892095      0.027183      0.107079
Ti      13.21754     13.24258     10.79183         0.821832      0.284220     -0.340214
Ti       1.89751      5.75482      2.19765        -0.261635     -0.998568     -0.202553
Ti       1.89318      5.66034     15.01310        -0.003392      0.224084      1.014505
Ti      13.31621      5.65961      2.09242        -0.443992      0.952534      0.065884
Ti      13.27591      5.56991     14.93842        -0.738918      2.485043      0.610043
Ti       1.90206      5.62041      6.60442        -0.277569      1.124248     -0.391312
Ti      13.21223      5.70566      6.48558         0.732483     -0.458559     -0.147547
Ti       1.89696      5.61168     10.63781         0.326907     -0.214584      0.464259
Ti      13.29482      5.63810     10.69850        -0.048177     -0.659141     -0.947371
Ti       1.88170      9.55412      2.24830        -0.758824      0.167887     -0.046818
Ti       1.85840      9.48017     14.99816         0.942728     -0.598473     -1.109120
Ti      13.26133      9.46408      2.12544         0.468005      0.680023     -0.413493
Ti      13.28587      9.45916     14.99149        -0.322950     -1.193775     -0.169204
Ti       1.81063      9.50174      6.56654         0.405288     -0.279860     -1.043274
Ti      13.23942      9.54449      6.47368        -0.007739     -0.089074     -0.057138
Ti       1.84039      9.45127     10.67884         0.518562     -0.258999      1.539521
Ti      13.13061      9.38323     10.71582         0.507359      1.239624      0.850247
Ti       5.64410      1.92987      2.25205        -0.079696      0.058146     -0.393796
Ti       5.72760      1.91305     15.09018        -0.549350      0.154895     -0.952454
Ti       5.62567     13.31098      2.38251         0.296118     -0.212806     -0.794022
Ti       5.73496     13.21475     14.94356        -0.000337      0.389807      0.311959
Ti       5.77673      1.88883      6.37955        -1.389558      0.646435      0.851043
Ti       5.70286     13.31912      6.43496         0.002117     -0.371650     -0.458157
Ti       5.62786      1.80407     10.59756         0.840250      0.861491      0.287027
Ti       5.78401     13.21102     10.65223        -1.135611      0.083121      0.567108
Ti       5.70857      5.74298      2.29100        -0.571734     -0.281378     -0.617501
Ti       5.64518      5.68732     15.01707        -0.043212      0.040909     -0.075194
Ti       5.73455      5.69751      6.37375        -0.319431     -0.086767      0.572141
Ti       5.71031      5.61745     10.56931        -0.370282      1.017125     -0.481982
Ti       5.53967      9.51705      2.37257         1.625519      0.349368     -0.035500
Ti       5.64057      9.49486     15.00159        -0.002431     -0.237224     -1.326106
Ti       5.62568      9.45314      6.45788        -0.182281      0.756803      0.329501
Ti       5.65175      9.42234     10.67665         0.130929     -0.232468     -0.458627
Ti       9.50268      1.84990      2.10942        -0.444169      0.400738      0.439516
Ti       9.47907      1.88134     15.12396        -0.190993      0.010018     -1.013622
Ti       9.56143     13.30266      2.32066        -0.696759     -0.718659     -0.542702
Ti       9.52465     13.21637     14.91048        -0.509706      0.437116      0.556735
Ti       9.53260      1.80380      6.37553         0.740016      0.098778     -1.290486
Ti       9.61898     13.29181      6.44226        -1.230748      0.560142      1.708286
Ti       9.48825      1.90241     10.71530        -0.011218      0.299551     -0.658743
Ti       9.53718     13.27951     10.77079        -1.227482     -0.136469     -1.066906
Ti       9.45304      5.71186      2.14747         1.114915     -0.088622     -0.209290
Ti       9.42428      5.61157     14.97852         0.795537      1.355506     -0.628728
Ti       9.56653      5.71618      6.35700        -0.615199     -0.423305      0.429108
Ti       9.49720      5.62237     10.70032        -0.944442      1.154330     -0.661020
Ti       9.46084      9.50187      2.19686         0.234613      0.120573      0.178233
Ti       9.41207      9.50225     15.01816        -0.554142     -1.529872      0.840279
Ti       9.46778      9.52997      6.42212         0.637115     -0.534406     -0.004501
Ti       9.38426      9.50313     10.70221        -0.751109     -1.142832     -0.891285
O       1.86418      1.84644      0.36349         0.113731     -0.334439      0.362021
O       1.89600      1.92643     13.23179         0.184791     -0.137328      0.422211
O       1.75523     13.19912      0.57723         0.183992      0.466674     -1.037427
O       2.06466     13.31030     13.13476        -0.528478     -0.092976      0.335219
O      13.31112      1.85527      0.33231         0.084019      0.135485      0.450908
O      13.31223      2.02987     13.22140        -0.219902     -0.641586     -0.911789
O      13.28664     13.21206      0.28977         0.139748      0.287187      0.527050
O      13.29150     13.24921     13.09920        -0.003795      0.127130     -0.777541
O       1.84037      1.89065      4.68172        -0.344845      0.089853     -0.177524
O       1.84381     13.28333      4.75971        -0.232189      0.240000      0.218050
O      13.28163      1.85921      4.60934         0.175896     -0.039184     -0.318372
O      13.26983     13.23574      4.82268         0.041083      0.084398     -0.083023
O       1.90389      1.93283      8.92582         0.161321     -0.391810     -0.630548
O       1.93080     13.35505      8.97613        -0.157100      0.087118     -0.980132
O      13.28140      2.01356      9.00986        -0.364460     -0.372378     -0.431887
O      13.32032     13.23995      8.96515        -0.336470     -0.010585      0.716366
O       1.97813      5.72266      0.40215        -0.332752      0.349699      0.587650
O       1.82008      5.59949     13.25610         0.196617      0.042109     -0.737632
O      13.22098      5.62701      0.35597         0.155208      0.110294     -0.721061
O      13.15125      5.83680     13.19527         0.378917     -0.580672     -1.307063
O       1.73252      5.63870      4.73122         0.552471     -0.078451      0.663168
O      13.27194      5.71911      4.64389        -0.101953     -0.143949      0.380820
O       2.00250      5.53200      8.86701        -0.280971      0.267546     -0.160563
O      13.15945      5.65486      8.85322         0.400993     -0.175837      0.731485
O       2.03120      9.29298      0.42607        -0.652799      0.879767      0.640997
O       1.95640      9.38839     13.17724        -0.327016      0.361816     -0.112298
O      13.27955      9.50856      0.29675         0.029912     -0.110757      0.741793
O      13.13867      9.45069     13.17518         0.243953     -0.132121      0.293695
O       1.73340      9.43447      4.75859         0.462127      0.060148      0.671981
O      13.16116      9.53130      4.66756         0.640963     -0.181356      0.149935
O       1.97048      9.44504      8.95163        -0.423043     -0.049453     -0.560525
O      13.21153      9.38411      8.97089         0.283369      0.405511     -0.964386
O       5.65212      1.79460      0.42815         0.009132      0.085217      0.546909
O       5.72705      1.85306     13.22646        -0.030697      0.190874      0.718622
O       5.70690     13.19486      0.52099        -0.310433      0.690936      0.661234
O       5.68066     13.17608     13.16356         0.197994      0.227479      0.042099
O       5.70647      1.86745      4.63483         0.054429      0.058539     -1.172275
O       5.56423     13.27876      4.64643         0.269743      0.314777     -0.077678
O       5.71673      1.88512      8.76503        -0.300335     -0.259507      0.895190
O       5.80214     13.34201      8.85425        -0.547520      0.130703     -0.576647
O       5.68454      5.69708      0.44735        -0.078337      0.302532      1.028505
O       5.71404      5.64237     13.23528        -0.057371      0.056964      0.398097
O       5.64582      5.73325      4.56681         0.109147      0.088418      0.134319
O       5.65337      5.69122      8.73159         0.309493     -0.289555      0.890084
O       5.55630      9.47830      0.57401        -0.124236      0.322538     -0.721082
O       5.69907      9.54340     13.16402        -0.051377      0.132826      0.822416
O       5.68585      9.49818      4.67716         0.075817     -0.278359     -0.371744
O       5.66649      9.49799      8.86331         0.070031     -0.230237      0.344587
O       9.41955      2.02806      0.30603         0.176236     -0.907554      0.046534
O       9.44235      1.94794     13.21538         0.261510     -0.710433      0.754616
O       9.54751     13.20006      0.54311        -0.004970      0.063298     -0.595370
O       9.51678     13.22345     13.14810        -0.156575      0.470002     -0.820923
O       9.49327      1.65369      4.57526         0.091118      0.533904      0.499669
O       9.71108     13.45055      4.74149        -0.082776     -0.288666     -1.858784
O       9.54691      1.81330      8.89247        -0.101798      0.766817      0.674802
O       9.51373     13.32930      8.87341         0.016333     -0.207377      1.495879
O       9.47259      5.55778      0.35295        -0.197132      0.303944      0.463588
O       9.45394      5.74441     13.14158         0.041599     -0.318859      0.523956
O       9.53499      5.73644      4.60172         0.221053      0.118575     -0.958138
O       9.45853      5.62285      8.87185        -0.135427     -0.190087      0.555025
O       9.39539      9.64839      0.42160         0.364754     -0.257846     -0.322147
O       9.39368      9.47811     13.26424         0.129165     -0.003770     -1.614038
O       9.51342      9.31974      4.62728        -0.249073      0.421566      0.923366
O       9.36895      9.37824      8.92038         0.184597      0.575140     -0.321237
O       3.72350      1.87205      2.59603         1.072442     -0.029960      0.022383
O       3.80808      2.00647     15.38876         0.092014     -0.553020      0.019454
O       3.71413     13.29933      2.62874         0.839162      0.578873      0.057889
O       3.80014     13.11264     15.28113         0.863879      0.029426      0.551218
O      15.19137      1.96539      2.54182        -0.322263     -0.619530     -0.031721
O       0.05050      1.75482     15.36716        -0.656598      0.514736     -0.361780
O      15.14887     13.26086      2.64903        -0.631090      0.278174      0.267624
O       0.05307     13.30219     15.24920        -0.836785      0.176431      0.149994
O       3.70813      1.88936      6.60744         0.814176     -0.161562      0.796735
O       3.76575     13.31722      6.85522        -0.193863      0.655224      0.152123
O      15.11492      1.88264      6.86509         0.331459      0.170549      0.050042
O      15.13724     13.22494      7.00217         1.208093     -0.359140      0.057894
O       3.79870      2.00241     11.02078         0.938321     -0.357830     -0.186704
O       3.84244     13.17899     11.00567         0.266310      0.218629      0.020287
O      15.19198      1.78307     11.05130         0.670616     -0.042918      0.333360
O      15.17315     13.34248     11.08419         0.503439     -0.192157     -0.055209
O       3.77015      5.65314      2.59611         0.176418      0.405486      0.150710
O       3.76792      5.52495     15.29547         0.038167      0.317073      0.012368
O      15.13842      5.81104      2.40909         1.205989     -0.402476      0.636978
O      15.13195      5.74127     15.32262         0.845888     -0.259711      0.100117
O       3.80864      5.61104      6.78599        -0.840186      0.251675     -0.521960
O      15.10286      5.55659      6.96624         0.158242      0.675126     -0.730263
O       3.83026      5.73733     11.02143        -0.940364     -0.695688      0.179751
O      15.18776      5.68670     10.94784         0.203698      0.084848      0.190127
O       3.73622      9.46899      2.71788        -0.560307     -0.235489      0.096467
O       3.71582      9.63499     15.26022         1.565668      0.164693      0.433549
O       0.03836      9.38646      2.62505        -0.980382      0.351965     -0.722509
O      15.19379      9.32901     15.26086        -1.194301      0.279971      0.152857
O       3.79158      9.43083      6.87802        -0.521799     -0.251454     -0.265024
O      15.17580      9.51022      7.02963        -0.522847     -0.305531     -0.284456
O       3.78838      9.55889     11.08946        -0.475603     -0.326421     -0.057515
O      15.12862      9.47412     11.11543         0.299869     -0.163379     -0.495431
O       7.59797      1.95204      2.48471        -0.360272     -0.347134      0.284200
O       7.55901      1.73960     15.33456         0.706130      0.184282      0.264702
O       7.60664     13.27157      2.63039        -0.029088     -0.316277      0.277384
O       7.59590     13.23355     15.32110         0.419813      0.475244      0.104514
O       7.61699      1.85172      6.65104        -0.189455      0.302878      0.353560
O       7.62315     13.28456      6.68819        -0.425372      0.070779      0.153617
O       7.57392      1.87576     11.00670        -0.325314     -0.162537      0.016458
O       7.56853     13.57455     10.91433         1.062082     -0.520603      0.648753
O       7.61922      5.71982      2.56931        -0.429439     -0.134138      0.213167
O       7.56042      5.80434     15.45659        -0.231234     -0.436238     -0.495670
O       7.63917      5.62537      6.54009        -0.090904      0.210228      0.548603
O       7.48964      5.61873     11.03020         1.521283      0.274958      0.050637
O       7.61187      9.59081      2.54483        -0.883477     -0.202134      0.363291
O       7.55773      9.46424     15.35924        -0.722773     -0.403709      0.378184
O       7.54025      9.50589      6.85369         0.834046      0.101466     -0.681369
O       7.54372      9.36126     11.07422        -0.023578      0.404543      0.445291
O      11.35252      1.81098      2.39508         1.426760      0.337379      0.346281
O      11.42082      1.86527     15.34270        -1.140094      0.213659     -0.142050
O      11.49039     13.28742      2.62663        -0.228134      0.054803     -0.179391
O      11.45861     13.19201     15.16417        -1.218114      0.335814      0.466176
O      11.41237      1.75383      6.66698        -0.155584      0.249349      0.640758
O      11.41859     13.28348      6.97427        -0.316874     -0.058853      0.084854
O      11.40051      1.88881     11.15045        -0.719809      0.423767      0.080261
O      11.36840     13.12256     11.02530        -0.796853      0.836946      0.115563
O      11.35057      5.63900      2.42102         0.525097      0.168434      0.544167
O      11.36208      5.54003     15.37052        -0.377888     -0.023734     -0.232290
O      11.36009      5.77490      6.82140         0.733000     -0.595451     -0.231420
O      11.39293      5.60599     10.96578        -0.462185      0.288619      0.557365
O      11.42136      9.50192      2.45093         0.296084      0.057731      0.163887
O      11.23694      9.56930     15.33371         2.516382     -0.480143      0.114765
O      11.43176      9.52160      6.84447        -1.524705     -0.374765      0.035851
O      11.24304      9.50699     11.00066         1.146804     -0.092249      0.532740
O       1.84710      3.79198      2.58067         0.073840      0.845387      0.001990
O       1.83134      3.75815     15.55677        -0.135198      0.196330     -1.024199
O       1.91243      0.00604      2.67549        -0.542846      0.676844     -0.144730
O       2.01010     15.10967     15.27055         0.097235      0.574230      0.523785
O      13.34230      3.83413      2.40363        -0.498127     -1.072547      0.716512
O      13.30661      3.75095     15.25162         0.390531     -0.361787      0.574878
O      13.38588     15.18453      2.43248        -0.184440      0.171048      0.136028
O      13.21363      0.00996     15.23390         0.195056     -1.302472     -0.042464
O       1.77728      3.73817      6.89177         0.376856      0.659550     -0.410484
O       1.70594     15.17135      6.82379         0.613443      0.725394      0.345369
O      13.16453      3.75446      6.63562        -0.019995      0.708768      0.583415
O      13.29878     15.15568      6.94642         0.189480      0.632062     -0.127127
O       1.90165      3.68860     11.19951        -0.191786      1.368830     -0.425607
O       2.06674      0.00106     11.09262        -0.411453     -0.467012      0.065047
O      13.37956      3.80505     11.08906        -0.433225     -0.242611      0.298851
O      13.23924     15.18320     11.14275        -0.354387     -0.424729      0.029397
O       1.89251      7.57795      2.68161         0.370887      0.089229     -0.108335
O       1.96539      7.58778     15.29755        -0.036730     -0.830118      0.244900
O      13.24422      7.56889      2.53133         0.035151      0.616370     -0.149537
O      13.16078      7.47230     15.35732        -0.048254      1.801026     -0.001152
O       1.80749      7.53878      6.84073         0.196722     -0.413186      0.339464
O      13.24036      7.57056      6.86325         0.662859      0.367808     -0.354165
O       1.87688      7.46190     11.10735         0.051674      1.243699     -0.306066
O      13.26674      7.58185     10.97138        -0.143928     -0.987942      0.577383
O       1.89862     11.41856      2.55455        -0.163241     -0.861142      0.322779
O       1.76285     11.35532     15.22774        -0.059335      0.275397      0.448480
O      13.37878     11.39036      2.48378        -0.263776     -0.245132      0.254008
O      13.27872     11.35924     15.21717         0.475435     -0.305709      0.093752
O       1.97639     11.38722      6.84536        -0.427255      0.002474      0.249039
O      13.29764     11.33357      6.92889         0.038615      0.506799      0.098417
O       1.85910     11.40271     11.05262        -0.339446     -0.832841      0.060140
O      13.18513     11.35609     11.06185         0.752278     -0.480867      0.117997
O       5.69224      3.82466      2.60421         0.044958     -0.349511      0.000417
O       5.71276      3.81442     15.45593         0.600005     -0.612895     -0.283056
O       5.83547      0.03015      2.60422        -1.055038     -0.276489     -0.234351
O       5.61872     15.14090     15.41436         0.046557     -0.441729     -0.264559
O       5.68770      3.83500      6.68874         0.140154     -1.262841      0.091626
O       5.64652      0.00285      6.73137         0.138427      0.090847      0.278564
O       5.66305      3.78648     11.04170        -0.148205     -1.148768     -0.241109
O       5.57546      0.00430     11.10607         0.161276      0.169219     -0.527225
O       5.70204      7.65132      2.51115        -0.121802     -1.058280      0.594127
O       5.52088      7.64392     15.32590         0.286053     -0.502422      0.385352
O       5.73087      7.58351      6.73853        -0.076125     -0.255745     -0.099158
O       5.68837      7.56311     11.00794        -0.254743     -0.111207     -0.013794
O       5.58485     11.42003      2.62654         0.347678      0.007071      0.259454
O       5.82458     11.35801     15.45934        -0.695993      0.215895     -0.173324
O       5.53605     11.45581      6.76650         0.741892     -0.751138      0.192040
O       5.93726     11.37406     10.91123        -0.317805      0.303747      0.121848
O       9.52293      3.71580      2.49431        -0.236032      1.021852      0.491887
O       9.38124      3.77279     15.30193        -0.219197     -0.642416     -0.008479
O       9.53986     15.15128      2.50088        -0.348944      0.507794     -0.103264
O       9.51138     15.12724     15.39573         0.252737     -0.055517     -0.136692
O       9.60572      3.74386      6.66360        -0.180107      0.259386      0.243445
O       9.47601      0.02736      6.88913         0.078308     -1.438950      0.199908
O       9.44446      3.81361     11.11776         0.140673     -1.098285     -0.216900
O       9.54378      0.04610     10.98646         0.437098     -0.835700      0.723738
O       9.53390      7.62281      2.34790        -0.205698     -0.925331      0.418349
O       9.53614      7.49813     15.33690        -0.130977      0.914188      0.287303
O       9.52301      7.56762      6.81978        -0.639383      0.743507     -0.312326
O       9.41160      7.57819     11.03366         0.266014     -0.976769      0.314217
O       9.57753     11.37380      2.70671        -0.136915      0.530136      0.179122
O       9.48046     11.36141     15.23923        -0.303498      1.117884      0.370582
O       9.57262     11.39859      6.78157        -0.376693     -0.470069     -0.120405
O       9.36948     11.37813     11.00627        -0.286087      0.867427      0.178540
