  # total energy = -7881.70137387 
CRSYTAL
PRIMVEC
    15.3600000000000000    0.0000000000000000    0.0000000000000000
     0.0000000000000000   15.3600000000000000    0.0000000000000000
     0.0000000000000000    0.0000000000000000    17.440000000000000
PRESSURE
1.90971 1.63597 -1.287 -0.170521 -0.392789 -0.017765
PRIMCOORD
320 1
Pb       3.79891      3.85805      4.40483         0.183983     -0.440620      0.197516
Pb       3.98423      3.78474     17.34485        -0.352754     -0.170724      0.345720
Pb       3.80159     15.32426      4.36528        -0.042981     -0.118328     -0.250865
Pb       3.92059      0.03798     17.39611        -0.999231     -0.491575      0.005794
Pb      15.32873      3.82813      4.43231         0.368526     -0.288922     -0.235927
Pb       0.13303      3.85664      0.05608        -0.506401     -0.372509     -0.063746
Pb       0.04697     15.29384      4.32439         0.219928      0.186019      0.073926
Pb      15.09609     15.29978      0.01611         0.713431     -0.170932     -0.732484
Pb       3.75293      3.97260      8.53266        -0.018557     -0.855903      1.582490
Pb       3.82464     15.33755      8.84122         0.204451     -0.033654     -0.452607
Pb      15.03850      3.92036      8.61188         1.113904      0.332360      0.292237
Pb      15.27796      0.18802      8.68584        -0.671391     -0.959840      0.618122
Pb       3.88577      3.75684     12.93239        -0.192031     -0.028411     -0.167869
Pb       3.74794     15.21413     12.93920        -0.056692      0.569339      0.373781
Pb      15.33792      3.67580     13.12052        -0.051117      0.227793     -0.211094
Pb       0.02169      0.03142     12.89935        -0.109985     -0.578252      1.131508
Pb       3.94400      7.68516      4.24842        -0.979903     -0.021001      0.823489
Pb       3.68613      7.64863      0.04397         0.460553      0.023550     -0.681292
Pb       0.21373      7.69356      4.29610        -0.794735      0.221933      0.545599
Pb      15.31939      7.80237     17.32432        -0.268950     -0.499372      0.654599
Pb       3.97235      7.61216      8.70964        -0.439615      0.530357      0.383402
Pb      15.33967      7.63211      8.67200        -0.283081     -0.186832      0.444727
Pb       3.81582      7.63722     13.06972        -0.036387     -0.123126     -0.358771
Pb       0.07981      7.69943     13.10504        -0.351190     -0.467621      0.117536
Pb       3.63076     11.47971      4.30707         0.399843      0.171539      0.110786
Pb       4.02951     11.29655     17.30453        -0.998465      0.685550      0.413945
Pb       0.17838     11.66868      4.15280        -0.996350     -0.606117      0.718360
Pb      15.26343     11.46288     17.29983         0.264558      0.235791      0.691956
Pb       3.78089     11.60959      8.71643         0.147645     -0.420626     -0.067232
Pb      15.34987     11.34296      8.65388        -0.091964      0.735005      0.812816
Pb       3.98119     11.50176     12.96176        -0.751630     -0.281425      0.581407
Pb       0.13328     11.46857     13.14612        -0.287591      0.713924      0.140134
Pb       7.69480      3.71484      4.40678        -0.024955     -0.183900      0.054825
Pb       7.70327      3.91307     17.27102        -0.071715     -0.539354      0.542538
Pb       7.68512      0.04625      4.32803         0.282649      0.056326      0.737510
Pb       7.38917     15.33058     17.31267         0.970279      0.175040      0.447685
Pb       7.65579      3.81659      8.68564        -0.204237      0.169596     -0.059281
Pb       7.68387     15.24890      8.58099        -0.070398      0.594819      0.505760
Pb       7.83093      3.99101     13.27088        -0.397657     -0.708553     -0.515230
Pb       7.70176      0.14409     13.01430        -0.352842     -0.051603      0.475461
Pb       7.52952      7.51061      4.26551         0.932249      0.334315     -0.189605
Pb       7.63184      7.64027     17.42972         0.023483      0.002653      0.201878
Pb       7.59154      7.87392      8.61088         0.199722     -0.766664      0.782961
Pb       7.61916      7.60556     12.97043        -0.234972      0.663507      0.221295
Pb       7.67915     11.38926      4.36297         0.344061      0.304511      0.023956
Pb       7.54390     11.65295     17.30157         0.393061     -0.497718      0.480299
Pb       7.71917     11.47790      8.68214        -0.291676      0.082731      0.298065
Pb       7.89055     11.66027     13.06601        -0.833240     -1.078926     -0.100519
Pb      11.59165      3.75276      4.36541        -0.557136     -0.173996     -0.198702
Pb      11.54764      3.81978      0.03672        -0.001127      0.027443      0.281164
Pb      11.58525      0.00424      4.24050        -0.546770     -0.473478      0.662272
Pb      11.40392     15.28842     17.19928         0.192251      0.382968      1.602105
Pb      11.58212      4.06469      8.66886        -0.581909     -0.279106      0.590052
Pb      11.47240     15.27243      8.63135         0.295569     -0.013028      0.023167
Pb      11.54235      3.69423     13.28825        -0.098400      0.518066     -0.997418
Pb      11.41453     15.33359     13.03356         0.328589     -0.113045      0.005117
Pb      11.59183      7.69331      4.20165        -0.741629     -0.065869      0.286164
Pb      11.41102      7.57752      0.00040         0.276925      0.313660      0.688201
Pb      11.56450      7.68941      8.63145        -0.280480     -0.829300      1.187139
Pb      11.39442      7.71575     12.99741         0.335101     -0.669466      0.547757
Pb      11.57394     11.37089      4.40138        -0.339064      0.841418     -0.444443
Pb      11.36434     11.49539     17.33497         0.128173     -0.507262      0.774248
Pb      11.49515     11.51346      8.85409         0.099896      0.332650     -0.527820
Pb      11.47012     11.44457     12.94277        -0.099303      0.438993      0.633459
Ti       1.91518      1.90927      2.37916         0.463603     -0.644303      1.357192
Ti       1.84653      1.83319     15.43581         0.026939     -0.462817      0.900930
Ti       1.88986     13.37989      2.11708         0.745425      1.170263      1.760028
Ti       1.87543     13.35038     15.47808        -0.101416      0.650924     -1.266299
Ti      13.45495      1.86190      2.31484         0.043114      0.673082     -0.058857
Ti      13.39937      1.87719     15.46759         0.741568     -0.263690     -1.006025
Ti      13.38299     13.42498      2.27431        -0.658784     -0.374725      0.448607
Ti      13.28208     13.31327     15.38146         2.340825      0.636283     -0.834133
Ti       1.89847      1.88675      6.80045        -0.115131      1.122305     -0.986688
Ti       1.80327     13.50042      6.83632         0.740849     -0.850041     -0.553111
Ti      13.34965      1.92566      6.63092        -0.650992     -0.757275      0.219090
Ti      13.44775     13.35426      6.74347        -0.903510      0.985308     -0.595792
Ti       1.89314      1.89982     10.95274         0.387712      0.355024     -0.004637
Ti       1.85960     13.36583     11.00891        -0.136421      0.321217     -0.538384
Ti      13.38613      1.89774     11.01570        -0.733192      0.206649     -0.871499
Ti      13.41057     13.43519     11.11609        -0.393186     -0.179889     -1.560503
Ti       1.91176      5.63846      2.34785         0.353913      1.063617      0.767832
Ti       1.87533      5.69970     15.45763         0.210679      0.808546     -1.164841
Ti      13.48078      5.70409      2.38187        -0.348719      0.519147     -0.335375
Ti      13.44949      5.68389     15.52014        -0.416508      0.241438     -1.136998
Ti       1.95075      5.82538      6.72664        -1.155160     -1.047864      0.175357
Ti      13.38803      5.81342      6.47111         0.005362      0.023770      1.029926
Ti       1.83839      5.71140     11.10844         0.760408     -0.184406     -1.151566
Ti      13.40518      5.74833     11.28042        -1.038786     -0.198877     -1.609902
Ti       1.88042      9.52735      2.18570        -0.323759      0.795884      0.017162
Ti       1.83318      9.57987     15.38465         1.320923      0.078745      0.882856
Ti      13.44530      9.61331      2.33115         0.251265     -0.099864      0.146716
Ti      13.29861      9.53519     15.36758        -0.207926      0.383547     -0.932781
Ti       1.86044      9.56952      6.69091         1.123197      0.258722     -0.701166
Ti      13.41454      9.57464      6.67239        -0.002963     -0.260629     -0.290092
Ti       1.86199      9.57190     11.05970         0.762441     -0.405537     -0.024627
Ti      13.44788      9.61518     11.17156        -0.408744     -1.163509     -1.502478
Ti       5.76571      1.91635      2.39302        -0.035313     -0.128992     -1.070272
Ti       5.72409      1.86160     15.32053         0.438819      0.420691     -2.217543
Ti       5.77370     13.39366      2.42937        -0.680118      0.105391     -1.273583
Ti       5.67720     13.36420     15.25096        -0.441183      0.384406      0.608781
Ti       5.72990      1.89816      6.80614         0.323541      0.024407     -1.336174
Ti       5.76386     13.39538      6.75098        -1.497445      0.181491     -0.350943
Ti       5.81352      1.90362     10.99402        -0.983381      0.434473     -0.632752
Ti       5.79547     13.47594     11.09448        -0.249497     -1.419410     -0.994795
Ti       5.69360      5.62727      2.31858         0.860619      0.279900     -0.234198
Ti       5.67121      5.75831     15.39622         0.348395      0.006145     -0.640996
Ti       5.78189      5.73997      6.64851        -0.227237     -0.109808      0.056108
Ti       5.74090      5.70160     11.05176        -1.254982      0.383400     -1.357935
Ti       5.73755      9.61249      2.35070        -0.003149     -0.110730     -1.614352
Ti       5.75370      9.48781     15.32325        -0.594132      0.128744     -0.007635
Ti       5.70704      9.61485      6.65190        -1.205705      0.329754      0.210690
Ti       5.68405      9.56256     11.09315         0.960601      0.294115     -0.725266
Ti       9.62053      1.82123      2.25202        -0.769910      0.280414     -0.508522
Ti       9.58901      1.87468     15.44883        -1.012105      0.195305      0.753234
Ti       9.51644     13.42854      2.38477         0.929857     -0.904247     -0.248142
Ti       9.57215     13.41425     15.35676        -1.137070     -0.088716     -1.361988
Ti       9.61957      1.96556      6.76426        -1.024731     -0.575993     -1.842348
Ti       9.56306     13.41658      6.66432         0.739179     -0.147716     -0.317637
Ti       9.55805      1.92093     10.95422        -0.216021      0.447458      2.155224
Ti       9.52731     13.52284     11.02846         0.949283     -1.123945     -1.228306
Ti       9.65847      5.59080      2.43990        -0.961999      1.051678     -1.631521
Ti       9.64313      5.76938     15.43365        -0.717623     -0.297352     -0.247836
Ti       9.52347      5.75191      6.65524         0.485198      0.409606      1.342899
Ti       9.57066      5.67994     11.09628         1.195406     -0.209625     -1.096062
Ti       9.59521      9.56379      2.26763        -0.558463     -0.547095      0.694656
Ti       9.47875      9.54001     15.39142         1.483231     -0.060337     -0.208093
Ti       9.64454      9.59191      6.72643        -0.630340     -0.748004     -0.337277
Ti       9.55633      9.52768     11.07014        -1.492569      0.410732     -0.884465
O       1.90542      1.98286      0.68176         0.036645      0.032532     -1.776496
O       1.77052      1.80662     13.70403         0.231159      0.325538     -0.308692
O       2.02522     13.42113      0.44224        -0.388868      0.159066     -1.529805
O       1.83544     13.36325     13.61632         0.059633      0.117712      1.441178
O      13.38374      1.77944      0.51668         0.312711      0.048692      0.902642
O      13.43092      1.98993     13.66840         0.087506     -0.233101      0.639413
O      13.36923     13.47627      0.50386        -0.091317      0.047420      0.248960
O      13.29969     13.27497     13.60952        -0.113453      0.253366      0.318079
O       1.93144      1.89220      4.98393        -0.183962     -0.083829      0.953521
O       1.78690     13.44888      4.98565        -0.065779     -0.044596      1.175765
O      13.35912      1.95002      4.82442        -0.019959     -0.012790      1.027249
O      13.46325     13.41610      4.95321         0.197289     -0.153263      0.718105
O       1.83832      1.93612      9.21861        -0.203088     -0.091639     -0.541962
O       1.85774     13.28641      9.21627         0.235176      0.359801      0.931909
O      13.30621      1.85871      9.14869         0.234740      0.424184      2.465658
O      13.29866     13.41802      9.29208        -0.044485     -0.069134      1.477210
O       2.00428      5.63665      0.61556        -0.249819      0.367484     -0.671106
O       1.85001      5.66544     13.67161         0.093079      0.251637      0.233436
O      13.37463      5.68105      0.59940         0.223567     -0.092580      0.062033
O      13.23348      5.66977     13.71715         0.800873     -0.159172      1.251398
O       1.92624      5.78724      4.98970        -0.069891      0.006338     -0.825313
O      13.27943      5.75102      4.70298         0.512000     -0.063352      0.562872
O       1.79104      5.74110      9.31894        -0.054436      0.019515      0.442777
O      13.34938      5.68989      9.41406         0.207456     -0.041048      1.339002
O       1.94742      9.63729      0.40581        -0.044125     -0.789732      0.506844
O       1.84334      9.58448     13.62918        -0.278629     -0.052658     -0.354662
O      13.58958      9.68561      0.61020        -0.712117     -0.330413     -0.676607
O      13.26427      9.59268     13.55431         0.292226     -0.048102      1.056918
O       1.87413      9.64336      4.87618        -0.301440     -0.033315      0.757145
O      13.33651      9.60076      4.86879         0.111806     -0.046411      1.028736
O       1.84319      9.47925      9.31376        -0.227378      0.379493      0.133446
O      13.49712      9.49638      9.33766        -0.210281      0.358977      1.344266
O       5.80938      1.97022      0.52817        -0.418407     -0.406225      1.290373
O       5.79994      1.86267     13.46034        -0.500875      0.029366      1.827066
O       5.80461     13.34513      0.53353         0.058464      0.359537      1.578645
O       5.68094     13.28601     13.51142         0.076443      0.713137     -0.297357
O       5.82327      1.99975      4.95688        -0.372061     -0.401479      1.426317
O       5.72507     13.39236      5.00497        -0.078754     -0.158576     -0.404127
O       5.76167      1.82344      9.16696         0.125993      0.300207      0.994258
O       5.63189     13.36733      9.29336         0.487878      0.406571      0.789072
O       5.62686      5.58531      0.50504         0.421878      0.229433      0.802244
O       5.64666      5.79275     13.59578         0.003259     -0.138147      0.881977
O       5.71368      5.67048      4.87944         0.083004      0.392384      0.013940
O       5.68289      5.80185      9.24796         0.266699     -0.200217      0.550699
O       5.78957      9.66815      0.47048        -0.267514     -0.232868      1.528935
O       5.61800      9.43719     13.57448         0.469214      0.073445      0.145942
O       5.54367      9.61544      4.88102         0.600090      0.202314      0.100590
O       5.70305      9.57071      9.29483         0.014568     -0.056201      0.007304
O       9.55817      1.93001      0.45826         0.074796     -0.175578      0.346521
O       9.43445      1.78393     13.72495         0.379178      0.048387     -0.604139
O       9.51598     13.35818      0.59945        -0.099267     -0.026884     -0.034344
O       9.55972     13.53048     13.52937         0.219017     -0.468746      1.469469
O       9.52298      1.86048      4.92640         0.212861      0.326294      1.114082
O       9.51268     13.39627      4.90141         0.031784     -0.118336      0.430253
O       9.43397      1.88397      9.25888         0.337722      0.269085     -1.354325
O       9.58013     13.48036      9.20676        -0.225601     -0.330679      0.735145
O       9.63948      5.68478      0.56918        -0.173414     -0.423891      1.472313
O       9.65958      5.66898     13.66450        -0.429792      0.524793      0.235967
O       9.42549      5.70293      4.93793         0.408572      0.107243     -1.092285
O       9.81933      5.72583      9.29279        -1.027944     -0.359522      1.449762
O       9.59621      9.46296      0.51596        -0.264405      0.499833      0.123539
O       9.50024      9.61673     13.62374         0.198965     -0.487437     -0.141096
O       9.56611      9.55729      4.97311         0.188573      0.182264     -0.142967
O       9.50989      9.50269      9.26410         0.002336      0.360370      0.810944
O       3.89773      1.88605      2.82521        -0.637899      0.126211     -0.131098
O       3.91044      1.88834     15.79536        -1.938045      0.243145     -0.015136
O       3.74832     13.34414      2.74318         0.941075      0.574093     -0.050054
O       3.77870     13.46228     15.75918         0.844867     -0.612857     -0.265899
O       0.03778      2.03387      2.83246        -0.980366     -0.524304     -0.432096
O      15.26458      1.88834     15.90216         1.492320     -0.030717     -0.037365
O      15.29550     13.51159      2.65492         0.750999     -0.317526     -0.312440
O      15.27316     13.35397     15.82883         0.172162      0.348060     -0.128845
O       3.71772      1.85489      7.18983         1.090630      0.342664     -0.337603
O       3.71906     13.52312      7.13706         0.134873     -0.334827      0.137911
O      15.16330      1.89485      7.12558         0.797115      0.547038     -0.618821
O      15.27299     13.45095      7.30301         0.513984     -0.235717     -0.701858
O       3.74282      1.88364     11.37835         1.104319     -0.349551      0.208666
O       3.78173     13.33405     11.45779         0.468260      0.448926     -0.326451
O      15.32426      1.90694     11.44697        -0.528845     -0.117610     -0.374960
O      15.30281     13.45427     11.47007        -0.105416     -0.117614     -0.265030
O       3.83376      5.76671      2.78382        -0.472067     -0.318743     -0.243792
O       3.78537      5.82771     15.84803         0.506284     -0.360394     -0.139322
O       0.00922      5.69420      2.82844        -0.182138      0.049235     -0.360102
O      15.34862      5.80243     15.91444        -0.644494     -0.256113     -0.169653
O       3.82724      5.73837      7.11736        -0.037657      0.565400     -0.486958
O      15.24398      5.67872      6.99810        -0.075775      0.269418     -0.096667
O       3.75447      5.74678     11.35790         0.384201     -0.041531      0.690572
O      15.29024      5.76992     11.55721         0.258119     -0.167198      0.177210
O       3.67544      9.50302      2.71242         1.643157      0.809608     -0.310931
O       3.80509      9.54412     15.68531         0.489210      0.072089      0.386872
O      15.35297      9.61486      2.65174        -0.060538     -0.283776      0.320205
O      15.31168      9.56999     15.84103        -0.561792      0.233446     -0.708941
O       3.71477      9.49966      7.06454         1.265210      0.170648      0.137345
O      15.32625      9.57766      7.14281        -0.617013     -0.299225     -0.506712
O       3.79223      9.56201     11.47341        -0.416961      0.357129     -0.129369
O      15.27845      9.47714     11.60674         0.659811      0.559676     -0.509026
O       7.65559      1.93892      2.66830         0.146127     -0.340812      0.311272
O       7.58887      1.81333     15.74662         0.539100      0.043652      0.215511
O       7.65513     13.44632      2.87363        -0.588816     -0.521039     -0.438665
O       7.63961     13.46582     15.64341        -0.339924     -0.442541      0.227134
O       7.65258      1.97573      7.14637        -0.338368     -0.126637     -0.025461
O       7.62368     13.36550      7.10944         0.464943     -0.088820      0.007146
O       7.60811      2.00970     11.47924         0.972048     -0.532630     -0.423009
O       7.72399     13.39238     11.49937        -1.606521      0.209512     -0.372681
O       7.61977      5.71314      2.73352        -0.124159     -0.186339     -0.209437
O       7.65333      5.78045     15.75951        -0.370689     -0.194349      0.011829
O       7.61866      5.62451      7.04704         0.742391      0.556733      0.133411
O       7.55664      5.74952     11.49490         1.624574     -0.714957      0.025017
O       7.54581      9.54823      2.72416         0.916782     -0.016559      0.072826
O       7.71400      9.54795     15.75304        -1.980708     -0.204267      0.246175
O       7.58696      9.71394      7.09564         0.137725     -0.464355     -0.311280
O       7.59827      9.53108     11.50558         0.907209      0.054662     -0.115621
O      11.47865      1.85173      2.61148         0.837113     -0.272458      0.244590
O      11.52484      1.89241     15.78811        -1.119745      0.054654     -0.106944
O      11.47510     13.45988      2.77242         0.508758      0.060491     -0.268914
O      11.45404     13.36902     15.88861        -0.651465     -0.105459     -0.687169
O      11.39461      1.90874      7.13186         1.910240     -0.348843     -0.268980
O      11.43587     13.32552      7.03353         0.812421      0.262412      0.369252
O      11.38393      1.80662     11.59253         0.956377      0.397773     -0.906365
O      11.38320     13.43071     11.39884         1.245733      0.198931      0.342394
O      11.48272      5.67921      2.75902        -0.050257      0.021269     -0.043827
O      11.45944      5.75790     15.99290         1.062953     -0.547865     -0.660064
O      11.52118      5.82715      7.06576        -0.296903      0.260555     -0.510465
O      11.43513      5.67269     11.65061         0.129492      0.030252     -0.479478
O      11.46536      9.58165      2.67730         0.324684      0.078827      0.036006
O      11.46151      9.59527     15.82594         0.448807     -0.438181     -0.049199
O      11.50326      9.44218      7.19597         0.685410      1.081445     -0.898068
O      11.39320      9.59748     11.47271         0.817839     -0.381023     -0.308959
O       1.87410      3.84002      2.79585         0.543798     -0.060147      0.320386
O       1.85701      3.90583     15.88265         0.155377     -1.946983     -0.160505
O       1.96508      0.00304      2.70693        -0.483398     -0.432291      0.028126
O       1.89777     15.33374     15.86004        -0.079827      0.585387     -0.052977
O      13.31430      3.78454      2.74804         0.557356     -0.252901     -0.216178
O      13.48884      3.76931     15.94079        -0.525012      1.119054     -0.274423
O      13.53416      0.02556      2.86567        -0.521156     -0.250190     -0.923232
O      13.37712     15.29404     15.68314        -0.121848     -0.212410      0.482574
O       1.81514      3.87289      7.11213         0.178515     -0.634790     -0.114552
O       1.82468      0.02400      7.31552        -0.292878     -0.356006     -0.801564
O      13.22295      3.91207      7.01605         0.780513     -0.782926     -0.625644
O      13.37099     15.31877      7.15512        -0.299979      0.373692     -0.699806
O       1.95465      3.76042     11.41378        -0.780494      0.736457      0.425246
O       1.96900     15.31200     11.38885        -0.709506     -0.178482     -0.075035
O      13.35615      3.74558     11.60970         0.140924     -0.128160     -0.564614
O      13.38100      0.01197     11.54409        -0.152788     -0.058049     -0.428682
O       1.88023      7.68900      2.82463         0.124351     -0.836479     -1.169291
O       1.86966      7.69265     15.83849         0.020030     -0.371580      0.086352
O      13.35604      7.61280      2.66577         0.380395      0.760356     -0.050653
O      13.42230      7.68013     15.81186        -0.115907     -0.342152      0.080662
O       1.82190      7.65544      7.10825        -0.163658      0.012957     -0.038858
O      13.44607      7.64552      7.14840         0.142231      0.333565     -0.905189
O       1.96249      7.70367     11.46892        -0.911403     -0.623285      0.387826
O      13.29078      7.64109     11.56192         0.284756      0.057704     -0.003344
O       1.88496     11.51665      2.52231        -0.252680     -0.388995      0.472212
O       1.88923     11.45599     15.88210        -0.100041      0.331374     -0.688899
O      13.36597     11.55054      2.72898         0.221422     -0.109954     -0.110350
O      13.42248     11.47063     15.82407        -0.566677     -0.490307     -0.106479
O       1.92895     11.44098      7.17095        -0.608498      0.787216     -0.409616
O      13.43322     11.46829      7.18113        -0.420935     -0.614918     -0.329361
O       1.80719     11.53987     11.52299         0.049026     -1.137606     -0.516007
O      13.36587     11.49379     11.43835        -0.001958      0.104126     -0.101843
O       5.66822      3.80217      2.86123         0.216844      0.147636     -0.669464
O       5.75746      3.77498     15.68939        -0.129971      0.997283      0.064032
O       5.80296     15.31557      2.90552        -0.644654      0.041190     -0.949079
O       5.57902     15.29838     15.78737         1.082127     -0.190659     -0.436912
O       5.74140      3.88696      7.06449        -0.579642     -1.084466      0.348261
O       5.66762     15.35277      7.11058         0.446715     -0.037640      0.000854
O       5.68488      3.79962     11.31766        -0.242352      0.032529      0.226881
O       5.76926     15.33293     11.40253        -0.233747     -0.124285     -0.031885
O       5.65788      7.67086      2.72750         0.430008     -0.318088     -0.517785
O       5.71678      7.67234     15.86507         0.184914     -0.550431     -0.097948
O       5.71460      7.67047      7.03885         0.333250      0.316997     -0.168835
O       5.75938      7.65970     11.37275        -0.556327     -0.434390      0.527482
O       5.74042     11.50712      2.68712        -0.251452     -0.237983      0.374316
O       5.77439     11.47443     15.67549        -0.074656      0.079960     -0.045070
O       5.65127     11.52813      7.16221        -0.187775     -0.587618     -0.220541
O       5.77220     11.49296     11.47773         0.021453      0.261000     -0.131078
O       9.60137      3.67695      2.81068         0.027066      1.224430     -0.328114
O       9.54940      3.81085     15.64076        -0.053552     -0.242307      0.555186
O       9.56377     15.29045      2.74967        -0.166193      0.886033     -0.207733
O       9.50757     15.26657     15.77686         0.648166      0.259106      0.050675
O       9.69041      3.85693      7.09722        -0.698697      0.401377      0.056998
O       9.55529     15.33314      7.06722        -0.284429     -0.260787      0.039614
O       9.57182      3.76738     11.69264        -0.285224      0.286991     -1.025178
O       9.46420     15.35340     11.39622         0.092227      0.987777      0.002974
O       9.55445      7.61874      2.75468        -0.020531      0.146003     -0.091309
O       9.54062      7.60036     15.99883         0.254295      0.574530     -0.902169
O       9.47234      7.67377      7.18584         0.047923     -0.369560     -0.607005
O       9.49136      7.55539     11.49348         0.308179      0.855714     -0.131443
O       9.54169     11.45831      2.78502        -0.141329     -0.198787     -0.221019
O       9.61021     11.41712     15.71173        -0.333486      1.642756      0.222837
O       9.64713     11.43337      7.09350        -0.405924      0.705455      0.341261
O       9.55136     11.48584     11.42084        -0.093802     -0.094634     -0.228817
