  # total energy = -7878.58391689 
CRSYTAL
PRIMVEC
    15.2000000000000000    0.0000000000000000    0.0000000000000000
     0.0000000000000000   15.2000000000000000    0.0000000000000000
     0.0000000000000000    0.0000000000000000    17.000000000000000
PRESSURE
8.02462 7.61552 4.30143 -0.073747 -0.048015 0.019979
PRIMCOORD
320 1
Pb       3.67324      3.94694      4.38618         0.200333     -0.301423     -0.670465
Pb       3.77158      3.86864      0.07273        -0.062371     -0.028673     -0.642924
Pb       3.71098      0.10838      4.35915         0.012293      0.302497     -0.765193
Pb       4.00127     15.18745      0.07334        -0.702226     -0.095556     -0.080986
Pb      15.15525      4.06704      4.35013         0.465316     -1.052558     -0.729060
Pb      15.16001      3.79724     16.89848         0.296844     -0.319064      0.146290
Pb       0.05095      0.14665      4.21530        -0.560475      0.295356     -0.287675
Pb       0.13721     15.17694     16.88245        -0.717171      0.323611     -0.034941
Pb       3.90028      3.63004      8.51782        -0.475554      0.523166     -0.720249
Pb       3.80164     15.12535      8.40583         0.006873      0.476149      0.089413
Pb      15.10353      3.75658      8.44508         0.140097     -0.085150      0.371973
Pb       0.00137     15.16669      8.69743        -0.425740      0.348552     -0.770546
Pb       3.80585      3.74884     12.73730         0.029529     -0.005003     -0.216845
Pb       3.89748     15.03631     12.74788        -0.140553      0.490379      0.175601
Pb       0.17556      3.57537     12.82459        -0.276716      0.373657      0.083494
Pb       0.04517     15.01987     12.67892        -0.067481      0.616369      0.628845
Pb       3.69471      7.66863      4.35219        -0.148207     -0.192508     -0.407199
Pb       3.85668      7.72278      0.24640         0.097384     -0.408601     -0.673069
Pb      15.12948      7.67878      4.18989         0.732371      0.206574     -0.111462
Pb       0.14777      7.62271     16.97911        -0.582786     -0.355675     -0.480101
Pb       3.74905      7.49293      8.48217         0.136439      0.004038     -0.495161
Pb      15.01195      7.57414      8.52230         0.385498     -0.560211     -0.049976
Pb       3.70689      7.52271     12.75536         0.210188     -0.612595     -0.315454
Pb      15.11059      7.42517     12.76624         0.343424      0.133558     -0.285363
Pb       3.57400     11.67352      4.33110         0.332033     -1.322187     -0.059477
Pb       3.94391     11.43060     16.99045        -0.098293     -0.076754      0.203985
Pb      14.94468     11.59564      4.34700         0.377304     -0.751634     -0.402709
Pb       0.05240     11.45054     16.88665        -0.400313      0.032381      0.136848
Pb       3.74600     11.45016      8.40188         0.277406     -0.680186      0.113126
Pb      15.04039     11.26691      8.65099         0.229856      0.347780     -0.318269
Pb       3.67040     11.22255     12.79394         0.349690      0.690545     -0.292096
Pb      15.11537     11.30447     12.57434         0.173787      0.021929      0.596063
Pb       7.62211      3.79508      4.12361        -0.055427     -0.161195      0.052281
Pb       7.67611      3.87506      0.08175        -0.307842     -0.367045     -0.433336
Pb       7.52772      0.01772      4.20526         0.577899     -0.031155     -0.282098
Pb       7.56963     15.11694      0.09801         0.281682      0.323001     -0.713248
Pb       7.79768      3.79304      8.20656        -0.600730      0.160365      0.606261
Pb       7.50343     15.13938      8.44712         0.688932     -0.216472     -0.155415
Pb       7.45539      3.68875     12.65807         0.378374      0.352570      0.109016
Pb       7.58602      0.12921     12.68496         0.007691     -0.566073      0.120395
Pb       7.63932      7.58073      4.39323        -0.239988      0.172220     -0.985981
Pb       7.54557      7.55005      0.01046        -0.067761      0.437483     -0.080568
Pb       7.61991      7.59612      8.44257         0.104291      0.111038      0.086390
Pb       7.60021      7.51940     12.74967        -0.440940      0.056828     -0.630246
Pb       7.52759     11.32343      4.12208         0.668195      0.405636      0.411008
Pb       7.62491     11.42298      0.07979         0.014400     -0.142247      0.041265
Pb       7.44388     11.43560      8.30355         0.777576     -0.278418      0.897971
Pb       7.50085     11.35387     12.70543         0.579746     -0.120650      0.087081
Pb      11.49394      3.88252      4.03710        -0.555138     -0.900039      0.117728
Pb      11.50525      3.84942     16.98432        -0.659522     -0.321841      0.105721
Pb      11.46934      0.02129      4.23132         0.058089     -0.086206     -0.791284
Pb      11.37562     15.10202     16.93924         0.167547      0.206795     -0.021373
Pb      11.39665      3.65443      8.40450         0.255746      0.365838      0.232988
Pb      11.21069     15.10876      8.68877         0.493140      0.188334     -0.582608
Pb      11.39854      3.73208     12.71529        -0.313322      0.000459      0.034662
Pb      11.28128      0.07590     12.87468         0.257158     -0.072961     -0.392544
Pb      11.53415      7.55477      4.11585        -0.905615      0.833935     -0.068349
Pb      11.36482      7.60095     16.95616         0.195613     -0.434752     -0.271917
Pb      11.40470      7.60431      8.38427        -0.429868     -0.031824      0.652882
Pb      11.27888      7.48452     12.65604         0.293490     -0.072089      0.174934
Pb      11.45776     11.50725      4.19448        -0.234987     -0.407516     -0.186768
Pb      11.46813     11.26230     16.94932        -0.308484      0.792087      0.040186
Pb      11.22479     11.45885      8.65407         0.069157     -0.277478     -0.499610
Pb      11.28549     11.11400     12.92354        -0.016350      0.781263     -0.610593
Ti       1.86422      1.92267      2.12493        -0.593085      0.379337      1.193003
Ti       1.97772      1.82605     15.02840        -0.866448      0.597669      0.146207
Ti       1.75807     13.36112      2.27875         1.404723     -0.872353      0.587960
Ti       2.00013     13.26107     14.97741        -0.449799      0.580715     -1.321228
Ti      13.31958      1.85875      2.09416         0.045094     -0.073729      0.266285
Ti      13.27164      1.86725     15.00300         0.867992     -0.792423      1.030444
Ti      13.36334     13.32255      2.05807        -1.917268      0.238309      0.236972
Ti      13.30996     13.25870     14.85841        -0.021460      0.466309     -0.105196
Ti       1.83404      1.91275      6.45200        -0.374415      0.436768      0.790551
Ti       1.83414     13.33572      6.55232        -0.188543     -0.581975      0.342601
Ti      13.27305      1.86442      6.36329         0.531096      0.100308      0.592482
Ti      13.33190     13.31385      6.70343        -1.096477      0.532383     -0.378872
Ti       1.95479      1.79252     10.72046         0.245463      1.406866      0.282700
Ti       1.95224     13.25854     10.70262         0.611614      0.238947      0.899753
Ti      13.32052      1.86427     10.81972        -0.553888     -0.020668      0.745321
Ti      13.24086     13.21527     10.80696        -0.629202      0.742454      0.161457
Ti       1.88133      5.71097      2.18502         0.513575     -0.327017      1.382714
Ti       1.88183      5.67336     15.02029         0.061212     -0.438805      0.163499
Ti      13.31891      5.67085      2.11911        -0.391383      0.488349     -1.590225
Ti      13.23661      5.61739     14.95635        -0.072688      1.528600      0.775663
Ti       1.84466      5.65783      6.60526         0.227069     -0.168167      0.437303
Ti      13.18954      5.69625      6.42479         1.391577     -0.357078      1.512860
Ti       1.86732      5.58967     10.65069         0.423260      0.124736      0.953981
Ti      13.27595      5.60522     10.70433        -0.196909      0.251749     -0.752795
Ti       1.90019      9.56835      2.20162        -0.842860     -0.653125      1.270300
Ti       1.91127      9.48541     14.94440        -0.231188     -0.857867      0.016429
Ti      13.31675      9.48135      2.05896        -0.104754      0.396320      1.292473
Ti      13.31318      9.43993     14.96000        -0.308874     -1.025814      0.194927
Ti       1.84305      9.47138      6.55893         0.504986      0.089644     -0.930758
Ti      13.27123      9.53747      6.45734        -0.769733     -0.753585      1.628480
Ti       1.85447      9.41167     10.67053        -0.399091     -0.349586      1.675957
Ti      13.13775      9.40737     10.74611         0.570688      0.105305      1.624414
Ti       5.62982      1.94673      2.23042        -0.459717     -0.641684      0.068234
Ti       5.69415      1.90903     15.07550         0.536114      0.195443     -0.399121
Ti       5.64305     13.30842      2.38112         0.008714      0.483734     -0.567052
Ti       5.79900     13.22915     14.92628        -0.418830      0.261441     -0.353830
Ti       5.75122      1.90373      6.39758        -0.628234      0.806710      0.470236
Ti       5.69706     13.29714      6.43096         0.324178     -0.073421      0.428954
Ti       5.67418      1.81634     10.59419        -0.349116      0.024524      0.449624
Ti       5.74503     13.20428     10.67890         0.776216      0.247187      0.975029
Ti       5.72340      5.73893      2.30419        -1.392671      0.033882      0.860967
Ti       5.65851      5.68605     15.05113        -1.081464      0.277189      0.665424
Ti       5.74209      5.73172      6.37315        -1.221950     -0.683066      0.375999
Ti       5.67348      5.59693     10.55403         0.399863      0.525688      0.529170
Ti       5.58699      9.56489      2.40141         0.914471     -1.125560     -1.081992
Ti       5.63828      9.45907     14.95602         0.260713      0.112080      1.908977
Ti       5.66994      9.48576      6.42304        -0.359257     -0.076074      0.951208
Ti       5.60493      9.41125     10.63238         1.950617      0.124646     -0.542089
Ti       9.46172      1.86025      2.14118         0.924356     -0.076337     -0.457922
Ti       9.50353      1.87111     15.09288        -1.247228     -0.162112     -0.678099
Ti       9.57018     13.28618      2.28666        -0.209274      0.710513      0.151544
Ti       9.51823     13.21998     14.95407         0.267739      0.936403     -0.260267
Ti       9.57255      1.81219      6.31730        -0.047496     -0.166901      1.312090
Ti       9.61639     13.28735      6.44365        -0.919329     -0.102570      0.345866
Ti       9.46737      1.89209     10.68123         0.786184      0.377185      1.017987
Ti       9.53355     13.27520     10.78909        -1.517195      0.369445      0.183455
Ti       9.49795      5.71213      2.16533        -0.412310      0.163196     -0.684468
Ti       9.41773      5.61935     14.92914         0.673264      0.113200      1.939778
Ti       9.56874      5.71246      6.35594        -0.828738     -0.264245      0.644163
Ti       9.45072      5.67359     10.68889        -0.220156     -0.775746     -0.545467
Ti       9.51304      9.52777      2.19134        -0.356846     -0.023137      0.918970
Ti       9.40770      9.47072     15.03283        -0.245980     -0.299619     -0.342854
Ti       9.47201      9.50202      6.40397         0.588867      0.208521     -0.607528
Ti       9.38169      9.49060     10.67876        -0.556935      0.069017      0.604009
O       1.83646      1.78623      0.38370         0.469916      0.119274     -0.732110
O       1.95264      1.87502     13.25044         0.029542      0.303549     -0.808289
O       1.71920     13.19810      0.56977         0.380569      0.434876     -1.803311
O       2.05301     13.37635     13.17385        -0.296200     -0.681238      0.067170
O      13.38782      1.84710      0.33321        -0.237022      0.176155     -0.804830
O      13.32681      1.99922     13.28024        -0.246516     -0.576329     -1.815048
O      13.33053     13.21609      0.30952         0.121681      0.143197     -0.383453
O      13.19987     13.25232     13.02967         0.688557     -0.340367      1.117971
O       1.84460      1.88702      4.68523        -0.463580      0.026700     -0.449874
O       1.88644     13.28728      4.75732        -0.646543      0.044103     -0.205637
O      13.35534      1.84229      4.60081         0.019386      0.172921     -0.313406
O      13.19452     13.14214      4.87631         0.495615      0.519850      0.517491
O       1.88392      1.94886      8.95901         0.164969     -0.565490     -0.594203
O       1.84985     13.37527      8.94925         0.436531      0.007489     -0.784039
O      13.19881      2.03037      9.09468         0.140835     -0.474580     -0.819436
O      13.30318     13.15156      8.97998         0.001483      0.382857      0.011592
O       1.93770      5.63346      0.46367        -0.124151      0.512125     -1.131783
O       1.78925      5.58440     13.25980         0.355654      0.391957     -0.994682
O      13.20205      5.64941      0.29790         0.264421      0.134820      1.049611
O      13.09451      5.81053     13.20870         0.581607     -0.270637     -1.211122
O       1.80226      5.56935      4.80442        -0.234635      0.373814     -0.778278
O      13.30668      5.74746      4.64700        -0.284213     -0.237207     -0.905250
O       1.91191      5.55619      8.89595         0.246369      0.266209     -0.484553
O      13.15578      5.63377      8.90269         0.237871     -0.205273      0.629515
O       2.00009      9.33712      0.43719        -0.399431      0.531516     -0.743277
O       1.94865      9.33350     13.14852        -0.109672      0.741094      0.275222
O      13.30568      9.42216      0.30981         0.161465      0.192276     -0.133524
O      13.21538      9.39132     13.15715        -0.086440      0.251851     -0.117098
O       1.73698      9.40995      4.74837         0.393536      0.176137      0.899438
O      13.18471      9.40972      4.73811         0.667236      0.254465     -1.253653
O       1.92280      9.45928      8.94109        -0.014543     -0.014185     -0.326457
O      13.21826      9.33864      9.02753         0.256603      0.703649     -1.854030
O       5.58982      1.74787      0.43669         0.257484      0.556943     -0.137105
O       5.66743      1.86681     13.27419         0.029920      0.204695     -0.208688
O       5.68554     13.19722      0.57326        -0.136590      0.308466     -0.115948
O       5.68112     13.22007     13.10714         0.412452     -0.009560      1.224097
O       5.69620      1.83430      4.65180         0.008677      0.085139     -0.804079
O       5.63380     13.30169      4.69489        -0.126671      0.124917     -1.297269
O       5.66676      1.87376      8.79429         0.000931     -0.231328     -0.151951
O       5.78401     13.30096      8.89844        -0.522280      0.229818     -1.187124
O       5.68686      5.71416      0.55299        -0.101722      0.107078     -1.126748
O       5.72585      5.67748     13.32964        -0.094092     -0.021276     -1.505570
O       5.63248      5.74681      4.59577         0.253821     -0.151400     -0.142481
O       5.66634      5.68145      8.77923         0.041736     -0.117840     -0.194032
O       5.50530      9.47776      0.55050         0.055126      0.334163      0.474799
O       5.62935      9.53191     13.25498         0.047209     -0.133893     -2.528747
O       5.68557      9.45687      4.65649         0.299272      0.014166     -0.899690
O       5.71077      9.54789      8.82380        -0.330404     -0.504523      1.059323
O       9.45187      1.95089      0.33648        -0.309637     -0.538455      0.572583
O       9.53327      1.89914     13.25835        -0.326654     -0.354450      0.004765
O       9.58476     13.19893      0.52855        -0.261528      0.251450     -0.778993
O       9.46488     13.18946     13.18565         0.233173      0.473785     -0.674672
O       9.48597      1.65896      4.59339         0.188065      0.681687     -0.542588
O       9.76226     13.47747      4.68610        -0.425603     -0.678843      0.024638
O       9.60849      1.83290      8.91369        -0.340538      0.260214     -0.402392
O       9.54478     13.30759      8.97685        -0.134567      0.093344     -0.301013
O       9.52508      5.58970      0.35401        -0.627064      0.190097      0.914712
O       9.45181      5.70715     13.19453        -0.160819     -0.068275     -1.111935
O       9.55611      5.63532      4.60682         0.019686      0.416629     -0.847952
O       9.38834      5.68078      8.88980         0.014478     -0.177490     -0.199389
O       9.46166      9.61421      0.43148        -0.011150     -0.103608     -1.039177
O       9.37115      9.50349     13.20963         0.509593     -0.234933      0.511920
O       9.47155      9.37320      4.58528        -0.233499      0.307142      0.677562
O       9.37965      9.38710      8.93888         0.148412      0.185705     -0.754507
O       3.68420      1.88998      2.60195         1.361823     -0.315468      0.073003
O       3.78429      1.93529     15.35348         0.909914      0.185120      0.623014
O       3.70034     13.30213      2.69892         0.493717      0.464742     -0.204322
O       3.86273     13.13262     15.31006        -0.010379     -0.107081      0.192360
O      15.16527      1.91547      2.46474         0.662227     -0.257468      0.672793
O       0.06814      1.73607     15.30718        -1.026391      0.600038      0.002208
O      15.09865     13.28198      2.66105         1.333725     -0.229980      0.674498
O       0.04555     13.31762     15.30221        -0.699308     -0.115101     -0.287917
O       3.70270      1.91907      6.65734         1.173119     -0.290928      0.682638
O       3.77898     13.34211      6.84466        -0.428077      0.218019      0.101754
O      15.13024      1.96755      6.89440        -0.373317     -0.369351     -0.204959
O      15.17444     13.21818      7.00990         0.259425      0.033789     -0.231082
O       3.82272      1.98248     11.03968         0.009312     -0.095677     -0.104947
O       3.93795     13.19878     11.04167        -2.032639     -0.356325     -0.100946
O       0.08379      1.70052     11.12019        -0.864781      0.441316      0.012382
O       0.04728     13.35880     11.02820        -0.037159     -0.300866      0.079298
O       3.78004      5.63846      2.65808        -0.130006      0.245793     -0.111286
O       3.70404      5.57751     15.31800         1.595841     -0.074777      0.379886
O      15.13279      5.77381      2.38935         0.688023     -0.153754      0.750287
O      15.17641      5.70162     15.29071        -0.895118      0.262683      0.361765
O       3.73862      5.60666      6.77373         0.314688      0.665799      0.073296
O      15.06148      5.58595      6.98909         0.245040      0.506202     -0.831154
O       3.85995      5.68116     11.07844        -1.294535     -0.230843      0.023319
O       0.02427      5.67019     10.95143        -1.285556      0.309220      0.340307
O       3.71977      9.43884      2.69505         0.590950      0.004335      0.106424
O       3.78327      9.70621     15.21753        -0.925147     -0.041896      0.424596
O      15.18325      9.40784      2.65063        -0.269493      0.287999     -0.790621
O      15.16648      9.28748     15.28464         0.656298      0.559873     -0.075013
O       3.80066      9.47633      6.86779        -0.537709     -0.574282     -0.079959
O       0.02252      9.51395      7.01846        -1.179160     -0.219421     -0.358589
O       3.80585      9.57239     11.07185        -0.742100     -0.291037     -0.128991
O      15.16069      9.47401     11.15453         0.212178     -0.243361     -0.672885
O       7.55116      1.92388      2.49957         0.611044     -0.196693      0.211855
O       7.55111      1.70961     15.22947         0.045809      0.229470      0.810883
O       7.58055     13.25347      2.59826         0.201694      0.142262      0.363135
O       7.66499     13.23689     15.27128        -1.432110      0.708657      0.630717
O       7.64930      1.88959      6.67355        -0.254801      0.044060      0.230202
O       7.56163     13.23632      6.73924         0.594819      0.320126     -0.035060
O       7.57971      1.82946     10.97211        -0.450548     -0.214440      0.234121
O       7.61307     13.54396     10.96021        -0.112618     -0.211078      0.581568
O       7.55643      5.72128      2.61729         1.906043     -0.647745      0.126772
O       7.50838      5.79518     15.40310         1.536455      0.033564      0.087133
O       7.60296      5.60503      6.60401         0.885343      0.246673      0.247822
O       7.51699      5.54681     11.02375         0.220488      0.690038      0.328614
O       7.58777      9.69201      2.45740        -0.080896     -0.510399      0.466610
O       7.48932      9.43605     15.28447         1.883014     -0.567867      0.634434
O       7.58618      9.53622      6.88351        -0.168946     -0.123113     -0.839692
O       7.56703      9.39729     11.12289        -0.694182     -0.354690      0.110017
O      11.45666      1.76567      2.32814        -1.037225      0.625952      0.786581
O      11.33965      1.80866     15.29182         1.177866      0.379929      0.318687
O      11.49220     13.29887      2.59148        -0.137745      0.175590     -0.031500
O      11.41972     13.22085     15.22435         0.281829     -0.070564      0.340202
O      11.41625      1.75145      6.67160        -0.565169      0.393741      0.326025
O      11.39432     13.24361      7.04087         0.613129      0.115941     -0.189619
O      11.35666      1.92518     11.19811         0.816557      0.025404     -0.218222
O      11.36588     13.15617     11.04552         0.722110      0.370040      0.003066
O      11.30793      5.63875      2.42298         1.732042      0.334243      0.718680
O      11.35615      5.52380     15.33776        -0.463053      0.087135     -0.298401
O      11.35870      5.77321      6.80513         0.115061     -0.028483     -0.114553
O      11.32893      5.62168     10.93010         0.357619     -0.182394      0.761477
O      11.41408      9.49309      2.45922         0.533322      0.279468      0.120657
O      11.33419      9.52162     15.39576         0.102837      0.113152     -0.565550
O      11.35461      9.50297      6.77301         0.457534     -0.542353      0.297664
O      11.26373      9.52748     11.03318         0.436114     -0.062821      0.477998
O       1.81648      3.78352      2.55498        -0.020664      0.758487      0.211622
O       1.81678      3.77955     15.48701         0.139078     -0.542807     -0.370614
O       1.83776     15.19784      2.64996        -0.154079      0.236257     -0.047000
O       1.99407     15.13831     15.24612         0.216479     -0.583143      0.810913
O      13.26084      3.83502      2.44052        -0.038010     -0.211160      0.468414
O      13.29962      3.73780     15.24398         0.234886      0.515926      0.535466
O      13.34935     15.19830      2.42805         0.231205     -0.870456      0.356492
O      13.24846     15.15902     15.19311        -0.030266     -0.862715      0.194764
O       1.75681      3.78317      6.86542         0.359511     -0.460859     -0.098387
O       1.72431      0.00977      6.77269         0.376910     -0.342549      0.517899
O      13.12553      3.79325      6.70746         0.067606     -0.296148      0.055951
O      13.25354      0.04558      6.93516         0.668123     -1.390346     -0.001821
O       1.85407      3.78009     11.19952         0.343851     -0.635779     -0.361925
O       2.13754      0.00044     11.08373        -0.513101     -1.520134     -0.153783
O      13.34524      3.77220     11.18158         0.072091     -0.065704      0.056880
O      13.30565     15.13744     11.14689        -0.449731      0.364241     -0.338759
O       1.94654      7.57736      2.63276        -0.399506     -0.193617     -0.012212
O       1.96860      7.56184     15.28772         0.025859      1.035429      0.410494
O      13.22862      7.59205      2.55831         0.116006     -0.079306     -0.288535
O      13.14714      7.56426     15.32835         0.110213     -0.129193     -0.057287
O       1.82971      7.55056      6.91509         0.061995      0.249542      0.065847
O      13.29702      7.54114      6.88748         0.039604      1.040726     -0.299701
O       1.84438      7.50620     11.09952         0.686107      0.878380     -0.285089
O      13.17127      7.55268     10.92513         0.299962     -0.748473      0.961979
O       1.94657     11.37250      2.47089        -0.524151      0.677008      0.708631
O       1.70370     11.38755     15.28211         0.612230     -0.832693     -0.186158
O      13.31210     11.39422      2.50813         0.177931     -0.490170      0.218916
O      13.30417     11.32965     15.31182         0.345965      0.413504     -0.379408
O       1.95887     11.40666      6.89737        -0.350816      0.059493     -0.188138
O      13.30654     11.32534      6.90441         0.138649      0.538720      0.171098
O       1.84623     11.42601     11.08747         0.188219     -1.125134     -0.095714
O      13.25266     11.32865     11.06445         0.584373      0.055426      0.180448
O       5.69609      3.73211      2.62029         0.012574      1.230044      0.032376
O       5.77186      3.85187     15.50221        -0.198052     -1.369885     -0.095630
O       5.75690      0.01562      2.51184        -0.558447     -0.426337      0.612532
O       5.59713     15.15995     15.42795         0.376341     -1.092500     -0.299384
O       5.64252      3.87599      6.67878         0.272044     -1.994782      0.307351
O       5.67935      0.01951      6.69011        -0.031023     -0.226707      0.683386
O       5.62896      3.71126     11.01684         0.465204      0.164614      0.021901
O       5.57544     15.18591     11.07772         0.438635      0.367279     -0.408183
O       5.81661      7.62172      2.57910        -0.576379      0.359842      0.281419
O       5.54667      7.62061     15.43825        -0.105983     -0.123051      0.044929
O       5.74793      7.60577      6.65359        -0.105300     -0.348303      0.597407
O       5.67184      7.51193     10.97104         0.010505      0.942144      0.080735
O       5.64336     11.41337      2.68714        -0.458444      0.206591      0.199521
O       5.87649     11.37031     15.49196        -0.905871      0.516752     -0.504187
O       5.55497     11.36947      6.71405         0.390905      0.852839      0.348954
O       5.98836     11.35022     11.00946        -1.173047     -0.213815     -0.514696
O       9.59923      3.72181      2.51690        -0.728880      0.668395      0.452214
O       9.34343      3.73658     15.38891        -0.102928      0.827311     -0.354095
O       9.52326      0.02887      2.60158        -0.395908     -0.755781     -0.440928
O       9.49305     15.14837     15.47351         0.105239     -0.622950     -0.229027
O       9.64029      3.75532      6.69041        -0.426976     -0.041598     -0.004540
O       9.51501     15.11291      6.91191        -0.276687      0.816908     -0.061262
O       9.36475      3.75906     11.13294         0.524243     -0.075224     -0.268389
O       9.61691      0.02662     11.09927        -0.104727     -0.024080      0.170447
O       9.57210      7.62822      2.35387        -0.703199     -0.756952      0.485421
O       9.61562      7.50219     15.35305        -0.807102      0.950629     -0.197873
O       9.44453      7.60657      6.78510        -0.290773     -0.534838     -0.202998
O       9.43997      7.53405     11.04454        -0.159254      0.149055      0.324278
O       9.53456     11.46952      2.65506         0.162459     -0.974079      0.318909
O       9.43702     11.38435     15.26896         0.196083     -1.091686      0.508199
O       9.58068     11.37607      6.82845        -0.588248      0.238198     -0.184683
O       9.36238     11.43214     10.95767        -0.140867     -1.130576      0.452651
