  # total energy = -7881.28078692 
CRSYTAL
PRIMVEC
    15.3600000000000000    0.0000000000000000    0.0000000000000000
     0.0000000000000000   15.3600000000000000    0.0000000000000000
     0.0000000000000000    0.0000000000000000    17.440000000000000
PRESSURE
2.08055 1.59025 2.43639 0.036208 -0.165109 -0.007423
PRIMCOORD
320 1
Pb       3.94466      3.78735      4.35573        -0.260531      0.015493      0.062487
Pb       3.85901      3.80853      0.01231        -0.044876     -0.118590     -0.826467
Pb       3.79164      0.03085      4.35715         0.147649     -0.312391     -0.251475
Pb       3.83472     15.29340     17.32769         0.060776      0.546421      0.077761
Pb       0.07076      3.83707      4.33108        -0.393855     -0.320355      0.123740
Pb       0.01547      3.80805     17.42877         0.106439     -0.129133     -0.535965
Pb       0.05967      0.02755      4.38022         0.029908     -0.418217     -0.468028
Pb      15.25773      0.09847     17.34929         0.172417     -0.249038     -0.119005
Pb       3.74862      3.86844      8.63646         0.164767      0.038359     -0.255620
Pb       3.72541     15.27238      8.68603         0.266833      0.169325     -0.151412
Pb      15.14716      3.93231      8.66810         0.604348     -0.376348      0.037143
Pb      15.27621     15.27258      8.72185         0.111874      0.052790     -0.336103
Pb       4.02012      3.67620     13.00173        -1.056999      0.837943      0.184344
Pb       3.82548     15.35505     12.95924        -0.084807      0.287020     -0.077178
Pb       0.02289      3.77316     13.00966        -0.127145      0.341252     -0.021721
Pb      15.26363     15.19194     13.01535         0.521700      0.816748      0.543495
Pb       3.84422      7.68639      4.30617         0.706170      0.250880      0.047851
Pb       3.79397      7.68085      0.03403         0.095873      0.003376     -0.570440
Pb       0.08399      7.68126      4.27033        -0.883203      0.197869      0.414455
Pb       0.07970      7.69061      0.05115        -0.074692      0.112465     -0.635199
Pb       3.72974      7.65995      8.63401         0.305841      0.053994     -0.254341
Pb      15.20742      7.66239      8.65628         0.606573      0.341521      0.155531
Pb       3.90129      7.59179     13.08802        -0.761974     -0.313601     -0.055395
Pb      15.34561      7.67922     13.04428         0.372902     -0.087366     -0.035750
Pb       3.81717     11.49559      4.35007         0.579712      0.165547     -0.248684
Pb       3.82822     11.53771     17.41027        -0.027627     -0.431765     -0.119586
Pb       0.07898     11.55557      4.26151        -0.496242     -0.035062     -0.004078
Pb      15.23190     11.46045     17.43942         0.450497     -0.027115     -0.044049
Pb       3.85138     11.43979      8.68474        -0.150731      0.246617     -0.513067
Pb       0.03351     11.49856      8.71604        -0.238675      0.182547      0.142802
Pb       3.88232     11.36846     12.96951        -0.434803      0.030119     -0.266548
Pb       0.11742     11.43472     13.01001        -0.213697      0.042435      0.268684
Pb       7.64029      3.81271      4.17015         0.696057      0.079678      1.457136
Pb       7.70802      3.77213      0.06313        -0.242945      0.213292     -0.707063
Pb       7.63263     15.29451      4.38824         0.501584     -0.249793     -0.271679
Pb       7.52195     15.33956     17.38780         0.102980     -0.153074     -0.075282
Pb       7.48142      3.91665      8.62783         0.621280      0.017505      0.142125
Pb       7.66211      0.07479      8.74210        -0.115714     -0.109520     -0.515187
Pb       7.76894      3.86386     13.00555        -0.438093      0.120036     -0.130694
Pb       7.71078      0.05005     12.94145        -0.139523     -0.514889     -0.004193
Pb       7.71209      7.62939      4.31907        -0.317953      0.124898     -0.304705
Pb       7.57811      7.70779      0.02056        -0.116098     -0.297645     -0.276373
Pb       7.74462      7.60722      8.72772        -0.263948      0.152666     -0.450821
Pb       7.72990      7.69757     13.11965        -0.943552     -0.274968      0.123647
Pb       7.63953     11.39470      4.34305         0.351731      0.428301     -0.153510
Pb       7.58909     11.63521     17.23468        -0.170690     -0.544388      1.253966
Pb       7.77781     11.54914      8.74000        -0.297697     -0.054196     -0.542207
Pb       7.72844     11.61492     12.95152        -0.171702      0.191247     -0.488455
Pb      11.50656      3.72908      4.27113        -0.253458      0.508226      0.451675
Pb      11.60738      3.85574      0.13704        -0.032535      0.059430     -0.267650
Pb      11.66076     15.31726      4.36406        -0.922376     -0.211520      0.185152
Pb      11.26183     15.27732      0.02466         0.695031     -0.117579     -0.370858
Pb      11.52751      3.84485      8.60992        -0.335879      0.142607     -0.278522
Pb      11.43152      0.06648      8.71061         0.333889     -0.594325     -0.716938
Pb      11.46673      3.75817     12.99708         0.651655      0.346738      0.137652
Pb      11.41763     15.28546     13.11771         0.441441      0.242906      0.232023
Pb      11.57252      7.50804      4.33563        -0.008586      0.458373     -0.699862
Pb      11.40063      7.74333     17.41226         0.315791     -0.088223      0.035430
Pb      11.60877      7.70072      8.63745        -0.299696      0.406391     -0.172908
Pb      11.38112      7.54066     13.16597         0.429914      0.477877     -0.281692
Pb      11.46187     11.49326      4.23858        -0.127345     -0.098680      0.393489
Pb      11.42054     11.50060     17.34912         0.443762      0.206300      0.845626
Pb      11.38714     11.40954      8.70081         0.628094      0.042644     -0.400438
Pb      11.59174     11.49842     13.04322        -0.142794     -0.767410      0.787008
Ti       1.95685      1.89280      2.37364         0.018635     -0.536028      0.029872
Ti       1.90592      1.90292     15.35839         0.069356      1.014353     -0.234371
Ti       1.94888     13.44427      2.24466         0.218959      0.198028      0.544560
Ti       1.92885     13.50163     15.34554        -1.387241     -0.598182     -0.653290
Ti      13.47247      1.83610      2.27074         0.025146      0.387644     -0.743248
Ti      13.29909      1.85782     15.51715         0.732043     -0.183659      0.134017
Ti      13.37168     13.44099      2.34502         1.174188     -1.062364      0.539606
Ti      13.48954     13.32413     15.39834        -1.080863      0.737469      0.471221
Ti       1.86542      1.96793      6.68289        -0.072188     -0.103797     -0.312152
Ti       1.90606     13.44244      6.66285        -0.106796     -0.282248      1.797318
Ti      13.44015      1.87011      6.64440        -0.458188      0.195900      1.587344
Ti      13.39999     13.38110      6.70288        -0.404088      0.358194      0.268043
Ti       1.86966      2.00363     10.93836        -0.233424     -0.501668      2.969725
Ti       1.93394     13.52182     11.11596        -0.176950     -0.674669     -0.899060
Ti      13.35650      1.92161     11.06330         0.832439      0.704966      0.334604
Ti      13.43540     13.48045     11.10054        -0.012778     -1.504374     -0.906173
Ti       1.93014      5.72883      2.40994         0.287756     -0.342985     -0.400986
Ti       1.87228      5.76980     15.47116         0.643028     -0.677290      0.763594
Ti      13.49400      5.67785      2.33731        -1.653882      0.420041     -0.632458
Ti      13.33025      5.70424     15.45791         0.902003     -0.056003      0.982751
Ti       1.87145      5.79000      6.62038         0.529000      0.292374      0.003542
Ti      13.43190      5.75645      6.64769        -0.093338     -0.074837      0.358878
Ti       1.89584      5.80590     10.98157         0.011469     -0.033072      1.452615
Ti      13.42746      5.84022     11.04449         0.410434     -1.753675      0.208044
Ti       1.94544      9.55947      2.27567         0.420310      1.039456     -1.003240
Ti       1.94443      9.67014     15.40913        -0.655679     -1.218116     -0.838559
Ti      13.47696      9.66308      2.32861        -1.811113     -0.995360     -0.354546
Ti      13.36449      9.52537     15.46938         0.939990      0.405931     -0.526962
Ti       1.84546      9.62732      6.67879         1.377631     -0.123785      0.089859
Ti      13.47723      9.65960      6.65830        -0.580891     -0.422257     -0.482802
Ti       1.90891      9.59797     10.97166        -0.678239     -0.250252      1.482393
Ti      13.35191      9.61719     11.11175         0.324657      0.100375     -1.383870
Ti       5.77966      1.87204      2.37829        -0.122756     -0.157837     -0.120473
Ti       5.78251      1.89430     15.32273        -0.745758     -0.110523      1.565287
Ti       5.74390     13.49172      2.27040        -0.126785     -0.462442      1.504531
Ti       5.66133     13.35558     15.25191         0.656764      0.678274      0.902698
Ti       5.69620      1.99255      6.72372         0.443835     -0.884417      2.452973
Ti       5.80141     13.53220      6.74701        -0.271791     -1.046233     -0.111318
Ti       5.80431      1.91810     11.05693        -0.711386      0.649432      0.064544
Ti       5.74579     13.39052     10.96462         0.835775      0.317803      1.097694
Ti       5.74240      5.71890      2.37224         0.513327      0.887335     -0.035301
Ti       5.72511      5.70353     15.39555        -0.199311      0.156397      0.065203
Ti       5.68631      5.82341      6.59141         0.620436      0.014455      1.064160
Ti       5.76076      5.80473     11.04957        -0.763142     -0.192645      0.048971
Ti       5.77842      9.65578      2.31428         0.570564     -0.920224      0.674911
Ti       5.70070      9.48748     15.28861        -0.938773      0.450749      2.537081
Ti       5.76410      9.65454      6.70741        -0.086519     -0.244313     -0.711175
Ti       5.67560      9.48987     10.90710         0.209447      0.321202      1.424505
Ti       9.63339      1.80932      2.40547        -1.526171      0.167841      1.301244
Ti       9.55669      1.86698     15.37430        -0.505313      0.772438      0.158976
Ti       9.59436     13.40858      2.31316        -0.888810     -0.562958      1.618388
Ti       9.56399     13.43148     15.41371        -0.082404      0.015334      0.879573
Ti       9.56030      1.98139      6.73058        -0.438601     -0.238821      0.278690
Ti       9.60256     13.41060      6.70387         0.490928      0.334894     -1.095381
Ti       9.59964      1.95562     10.98143         0.013078     -0.282499      1.615902
Ti       9.74765     13.41091     10.96834        -1.716154     -0.250545     -0.615929
Ti       9.57882      5.74601      2.28932         0.075956     -0.495196      2.482439
Ti       9.56910      5.73428     15.42061        -1.039893     -0.132724      0.615215
Ti       9.61943      5.81371      6.71241        -1.362372     -1.354878     -0.248748
Ti       9.60954      5.80211     10.97450        -0.321781      0.153079     -0.594529
Ti       9.65333      9.57667      2.26986        -0.690828      0.530362      1.380845
Ti       9.48043      9.63761     15.43276         0.509554     -0.359699      1.003807
Ti       9.61129      9.56075      6.54570         0.056337      0.049957     -0.152546
Ti       9.48523      9.56815     11.09837         0.728748      0.143830     -0.977645
O       1.89934      1.76745      0.65682         0.255212      0.341155     -0.958123
O       1.93816      1.98883     13.59630        -0.151966     -0.248806     -0.010811
O       2.10943     13.45551      0.49167        -0.507518      0.146980     -0.224878
O       1.80847     13.63152     13.55544         0.547137     -0.600272      0.040525
O      13.38640      1.86312      0.43951        -0.059945     -0.157300      1.205868
O      13.34524      1.84459     13.80002        -0.166715      0.426592     -1.762507
O      13.60464     13.39015      0.65682        -0.214157      0.059611     -1.634755
O      13.33471     13.29734     13.65231         0.330821      0.110955     -0.587218
O       1.81468      1.97551      4.87832         0.102679     -0.185768      0.337759
O       1.87118     13.52231      4.95881         0.375747     -0.407447     -1.276764
O      13.45985      1.93566      4.94799        -0.079695     -0.536247     -2.062505
O      13.34891     13.45296      4.95863         0.053200      0.141990     -0.959047
O       1.90038      1.94123      9.27121         0.256933     -0.001819     -3.040825
O       1.81325     13.51393      9.34390         0.073098      0.208580     -0.360131
O      13.27142      1.90693      9.33475        -0.079766     -0.007246     -1.035042
O      13.36065     13.49148      9.32171         0.237741      0.148886      0.409762
O       1.90056      5.89148      0.67099         0.242062     -0.352739     -0.387950
O       1.83972      5.69018     13.78179        -0.350845      0.049500     -1.822012
O      13.22198      5.61645      0.56542         0.593372      0.258592      0.101697
O      13.46475      5.71080     13.74939        -0.288895     -0.162813     -1.004562
O       1.74622      5.72938      4.84777         0.295223      0.101657     -0.674765
O      13.45129      5.60043      4.92892        -0.132596      0.657327     -0.864719
O       1.83641      5.91475      9.25016         0.085381     -0.596589     -0.844819
O      13.53799      5.79124      9.26202        -0.386112     -0.149621     -0.824247
O       1.97729      9.51128      0.47810        -0.156022     -0.156597      0.749296
O       1.93508      9.63455     13.59658         0.014700      0.043586      0.261118
O      13.51476      9.57531      0.55354        -0.509987     -0.097183     -0.566528
O      13.37770      9.67285     13.70254         0.227642     -0.286032     -0.308809
O       1.82884      9.73065      4.93177         0.226579     -0.262246     -1.473270
O      13.51281      9.57156      4.92163         0.007768      0.144130     -0.757147
O       1.76006      9.38665      9.27229         0.299631      0.672116     -1.425128
O      13.39086      9.62193      9.28706         0.111918     -0.258871      0.617422
O       5.81230      1.83180      0.63889        -0.138146      0.276182     -1.085331
O       5.81381      2.02304     13.60614         0.238297     -0.165735     -1.622438
O       5.62574     13.49662      0.54363        -0.068458     -0.000986     -1.005964
O       5.64710     13.36686     13.52410         0.391882     -0.237209     -1.243347
O       5.66114      1.94935      5.05681         0.153528     -0.203971     -3.095341
O       5.69901     13.38452      4.99058         0.161112      0.482865      0.025847
O       5.78602      2.02868      9.34965        -0.038548     -0.267547     -1.718515
O       5.92642     13.47149      9.26919        -0.510036     -0.049244     -1.351656
O       5.86291      5.74905      0.62198        -0.331066     -0.087511     -0.792631
O       5.70576      5.74927     13.62399         0.355166     -0.061015     -0.300065
O       5.82200      5.73426      4.87816        -0.280274     -0.031294     -1.234252
O       5.59190      5.96135      9.32681         0.199311     -0.432619     -1.079132
O       5.80264      9.61364      0.58262        -0.215886     -0.325458     -0.347073
O       5.61988      9.36697     13.57526         0.231907      1.028522     -0.828369
O       5.74763      9.76681      4.90644        -0.324280     -0.307654      0.425290
O       5.66031      9.48651      9.18263         0.121146     -0.040574     -0.992465
O       9.53218      1.85551      0.71359        -0.018279     -0.185053     -2.441921
O       9.55330      1.93702     13.59395        -0.148782     -0.183156      0.022162
O       9.58698     13.46983      0.60420        -0.179603      0.096030     -1.990317
O       9.54542     13.31392     13.70440        -0.011923      0.232920     -1.590318
O       9.48948      1.95613      5.01166         0.119070     -0.060992     -0.981615
O       9.59686     13.39271      4.89874         0.057489      0.112892      0.925410
O       9.62573      1.75486      9.28932         0.052768      0.519875     -1.275561
O       9.67062     13.33345      9.14785         0.255747      0.125792      1.118152
O       9.55091      5.83382      0.59995         0.033679     -0.317912     -1.949270
O       9.59139      5.82571     13.65613        -0.090788     -0.264894     -0.610910
O       9.51617      5.62002      4.96977         0.294030      0.560639     -0.522966
O       9.61927      5.96352      9.20573         0.182032     -0.052526      0.783145
O       9.58137      9.65040      0.52962        -0.081696     -0.449734     -0.998906
O       9.56740      9.52263     13.71014        -0.505942      0.294193     -1.097025
O       9.62117      9.72905      4.79349        -0.053696     -0.602103      0.060624
O       9.62079      9.61361      9.32166        -0.204244     -0.384392      0.191067
O       3.87738      1.97873      2.76806        -0.963655     -0.049029      0.348154
O       3.88413      1.97741     15.74278         0.123248     -0.715441      0.249220
O       3.85661     13.57839      2.80669        -0.827336     -1.014813     -0.093585
O       3.76862     13.45897     15.64635        -0.011161     -0.239971      0.331007
O      15.32508      1.74942      2.64467        -0.259803      0.394938      0.259279
O      15.33557      1.98617     15.83218        -0.120955     -0.281263      0.136768
O       0.06941     13.39077      2.75735         0.182606      0.330475     -0.085499
O      15.31570     13.32015     15.66049         1.023985      0.666080      0.521835
O       3.76306      1.88670      7.03519         0.085604      0.479969      0.590761
O       3.87389     13.30073      7.19553        -0.683373      0.783810     -0.141573
O      15.30073      1.92351      7.00158         0.746110     -0.180805      0.638266
O      15.31227     13.39769      6.98898         0.493800      0.411094      0.670557
O       3.88921      1.91594     11.36281        -0.841142      0.103472      0.305096
O       3.85961     13.59967     11.26616         0.038016     -0.168613      0.366756
O      15.26627      1.97255     11.16016        -0.055024     -0.408050      0.891118
O      15.34734     13.30833     11.36267        -0.765398      0.721401      0.626813
O       3.90067      5.73875      2.67949        -2.380093      0.028511      0.604800
O       3.84365      5.59243     15.75336        -0.035880      0.520874      0.827650
O      15.31301      5.77686      2.66405         1.056253     -0.336863      0.328725
O      15.34287      5.73472     15.94455        -0.737020     -0.070608      0.049213
O       3.78823      5.69920      6.94528        -0.609065     -0.305402      0.440291
O       0.01696      5.75269      7.01176        -1.026165      0.116679      0.421281
O       3.80678      5.83346     11.39505        -0.765509     -0.627760      0.134191
O      15.28889      5.68636     11.48619         0.944571      0.289720      0.113610
O       3.88362      9.44767      2.67934        -1.123147      0.341467      0.149785
O       3.78224      9.66243     15.84133         1.258000     -0.405301     -0.076144
O      15.25455      9.74490      2.49067         3.128435     -0.874683      1.056333
O       0.01158      9.46031     15.81179        -0.564191     -0.038002      0.233220
O       3.76802      9.70104      7.06104         0.641158      0.150043      0.279548
O       0.04797      9.57474      6.98651        -1.944956      0.208780      0.920838
O       3.78153      9.56570     11.36290         0.791828      0.000754      0.098790
O       0.04083      9.78595     11.40844        -1.016955     -0.875207      0.224464
O       7.62843      1.77553      2.73752         0.549392      0.219775      0.577450
O       7.62214      1.71003     15.82947         0.206274      0.840995     -0.037132
O       7.63525     13.45525      2.64461        -0.655339      0.365171      0.288177
O       7.56491     13.41431     15.72921         0.373120     -0.100172     -0.095097
O       7.64169      1.95919      7.18730         0.023333     -0.110254      0.058587
O       7.71797     13.52862      7.09856        -0.067637     -0.515109      0.208737
O       7.73017      1.88330     11.48553         0.606502      0.344065     -0.118206
O       7.77830     13.40060     11.22016        -0.399383     -0.145519      1.192404
O       7.60045      5.73781      2.71528         1.829697      0.071311      0.167925
O       7.65876      5.84532     15.82332        -0.021307      0.080345      0.109458
O       7.55399      5.78491      7.20348         0.332939      0.639647     -0.257777
O       7.65775      5.78062     11.18308         1.123463      0.071220      0.805078
O       7.75585      9.57721      2.80124        -1.198252     -0.339540     -0.350501
O       7.52350      9.58588     15.85521         1.152815      0.079192     -0.706473
O       7.69531      9.49436      6.93568        -0.607660      0.021403      0.475602
O       7.55235      9.53580     11.25904         0.930935      0.162114      0.737251
O      11.43567      1.96218      2.75973         2.035251     -0.728453     -0.039924
O      11.36197      1.64576     15.75150         0.258184      1.188145      0.395111
O      11.52324     13.33888      2.60031        -0.338715      0.317660      0.441686
O      11.48387     13.33229     15.89313        -0.122006      0.576114     -0.339973
O      11.51585      2.10992      6.98132        -0.374865     -0.646238      0.620501
O      11.49982     13.37879      7.12400        -0.241373      0.322529     -0.021175
O      11.44940      1.83485     11.47687        -0.048035      0.376145      0.255760
O      11.55217     13.26576     11.63656        -0.899142      1.174167     -1.082785
O      11.51851      5.63917      2.71244        -0.324719     -0.042297      0.358987
O      11.39401      5.61385     15.84584         0.353730      0.263155      0.119695
O      11.46405      5.79723      7.13256         1.680706     -0.236989     -0.248352
O      11.55797      5.77644     11.47221        -1.369314      0.468703      0.058330
O      11.48844      9.61578      2.64323         0.546134     -0.043650      0.303265
O      11.48009      9.76773     15.83274        -0.500430     -0.925404     -0.108612
O      11.51607      9.56556      6.89251         0.132786     -0.231473      0.820979
O      11.46143      9.52297     11.40785         0.113693     -0.345630      0.400213
O       1.82434      3.80073      2.66898         0.164172      0.876015      0.184041
O       2.05707      3.71405     15.92077        -1.247621      1.165450      0.469831
O       1.95012      0.00495      2.70595        -0.047921     -0.627410      0.631399
O       1.78696      0.03692     15.72698         0.522101     -1.048983      0.376697
O      13.44652      3.69546      2.66745         0.146709      0.509095      0.096905
O      13.36123      3.78572     15.92848        -0.453814      0.175695      0.020246
O      13.41024     15.29914      2.72988        -0.306432      0.856546      0.309700
O      13.34470     15.30737     15.72799         0.745475     -0.763002      0.666936
O       1.88442      3.85306      7.07385        -0.153844     -0.088335      0.183311
O       1.95889     15.35097      7.06443        -0.455219     -0.158957      0.176789
O      13.44449      3.84807      6.97047         0.012456      0.472099      1.091737
O      13.38592      0.00022      7.15009        -0.183505     -0.015710     -0.175181
O       1.81181      3.83774     11.47249         0.714812      0.472104     -0.653881
O       1.79623      0.06805     11.45967         0.236065     -0.098971     -0.009953
O      13.37897      3.87371     11.48509        -0.504195     -1.203473      0.005638
O      13.32578     15.29725     11.59918         0.138323      0.599534     -0.481890
O       1.83094      7.72058      2.73678         0.151825     -0.592303      0.202233
O       1.99456      7.64460     15.76179        -0.029356     -0.028066      0.629213
O      13.40667      7.57634      2.71882        -0.002317      0.645497      0.269333
O      13.17849      7.61563     15.63568         0.220285      0.421582      0.902516
O       1.92914      7.70845      6.98240        -0.069657     -0.840380     -0.095115
O      13.43994      7.72237      7.03671        -0.041655     -0.964852      0.113971
O       1.84001      7.69391     11.44716        -0.291410     -0.434983      0.239983
O      13.51027      7.61284     11.37297        -0.000324      2.160195      0.660228
O       2.01318     11.44546      2.58205         0.025707      0.783290      0.439795
O       1.90309     11.47348     15.65685        -0.108503      1.866489      0.491941
O      13.45653     11.50676      2.75578        -0.242651      0.383228      0.188515
O      13.52115     11.45973     15.92573        -0.626756      0.014214     -0.149646
O       1.83251     11.50913      7.18521         0.272639      0.747768     -0.003459
O      13.37395     11.51709      7.05999         0.465919     -0.282930      0.386857
O       2.01665     11.57234     11.35305         0.178412     -0.135545      0.464042
O      13.32948     11.47314     11.43926         0.367724      0.129265      0.127086
O       5.71796      3.80671      2.83443         0.179154     -0.140418     -0.530208
O       5.80890      3.85362     15.75855         0.558891     -1.182429      0.514865
O       5.62258      0.02634      2.72590         0.532141     -0.657880      0.538861
O       5.65307     15.27293     15.62246         0.151186      0.465916      0.343045
O       5.73798      3.85034      7.01602        -0.511655      0.588084      0.703939
O       5.75717      0.04446      7.12851        -0.186583     -0.360455      0.236618
O       5.82963      3.87712     11.41594        -0.063780     -0.228037      0.416777
O       5.79812      0.06979     11.42202         0.379723     -1.350883      0.261520
O       5.73847      7.63616      2.84453         0.357394      0.481932     -0.132606
O       5.57819      7.65685     15.78573         0.467390      0.191391      0.185342
O       5.47114      7.66082      6.89778         0.749508      0.998758      0.198089
O       5.71384      7.65996     11.56176         0.225849      0.369024     -0.395061
O       5.62325     11.50157      2.64154         0.237748      0.689954      0.230316
O       5.67780     11.49755     15.89643        -0.190474      0.059259     -1.146732
O       5.81690     11.54647      7.11856         0.206316     -0.421266      0.538752
O       5.75352     11.48401     11.33571        -0.351681     -0.010688      0.151299
O       9.50869      3.77745      2.77467         0.116127      0.404010     -0.564433
O       9.38367      3.80280     15.77250         0.351583     -0.534442      0.018113
O       9.66353     15.26392      2.80448        -0.064795      0.635253      0.265264
O       9.46153     15.30905     15.84389         0.386628     -0.241158     -0.034552
O       9.50114      3.93513      7.19587         0.307440     -0.911927      0.410081
O       9.59230      0.02863      7.02234         0.389921     -0.080563      0.476386
O       9.63979      3.90605     11.32046        -0.136834     -0.708855      0.116021
O       9.66284     15.25520     11.41644         0.002215      0.422213     -0.044292
O       9.66890      7.63069      2.72091        -0.257853     -0.102515      0.065837
O       9.56383      7.73202     15.79718         0.382153     -0.170394      0.218615
O       9.60573      7.64308      6.98302        -0.127463      1.129759      0.350933
O       9.44459      7.67198     11.65154         1.069791     -0.253766     -0.876779
O       9.47967     11.52831      2.72575         0.711368     -0.285784     -0.178740
O       9.56861     11.55453     15.86150        -0.839006     -0.666540     -0.205960
O       9.63526     11.40453      7.01504        -0.600850      1.168536      0.602565
O       9.54992     11.45660     11.42938         0.058079      0.302948      0.210165
