  # total energy = -7877.08516395 
CRSYTAL
PRIMVEC
    15.2000000000000000    0.0000000000000000    0.0000000000000000
     0.0000000000000000   15.2000000000000000    0.0000000000000000
     0.0000000000000000    0.0000000000000000    17.000000000000000
PRESSURE
7.67253 7.851 2.95786 0.154245 -0.070733 0.129053
PRIMCOORD
320 1
Pb       3.69238      3.89659      4.26166         0.293546     -0.147829      0.283280
Pb       3.88342      3.93633      0.03761        -0.224413     -0.601364     -0.001257
Pb       3.69134      0.13482      4.37977         0.029190     -0.611550     -0.836717
Pb       3.97008     15.16678      0.04174        -0.776342     -0.192002     -0.178953
Pb      15.19564      4.12067      4.31361        -0.190876     -1.481592      0.298525
Pb      15.13746      3.71663      0.01051         0.139478     -0.248999     -0.507548
Pb       0.08388      0.18354      4.21030        -0.451253     -0.478210      0.586799
Pb       0.01644     15.13223     16.93240         0.082729      0.416528     -0.196754
Pb       4.05611      3.56890      8.47164        -0.810669      0.915883      0.304379
Pb       3.80762     15.07964      8.59447        -0.356221      0.487444     -0.272884
Pb      15.17578      3.76606      8.45168         0.693458      0.190177      0.321964
Pb       0.00411     15.10491      8.69444        -0.216357     -0.382788     -0.520478
Pb       3.76391      3.81226     12.76772        -0.045941     -0.471167     -0.410552
Pb       3.73781     15.10485     12.80581         0.102766      0.883692     -0.297094
Pb       0.07876      3.62407     12.74723        -0.333286      0.633608      0.031175
Pb       0.01672     15.16178     12.77422         0.116852      0.259589     -0.068967
Pb       3.74849      7.52230      4.26958         0.314511      0.541852      0.063314
Pb       3.90562      7.63923      0.23349        -0.621166     -0.148686     -0.733333
Pb      15.15933      7.57574      4.10804        -0.746959      1.018614      0.957147
Pb       0.07864      7.56040     16.88445        -0.358964      0.893706      0.650657
Pb       3.80697      7.58076      8.39945        -0.048105     -0.041309      0.386065
Pb      15.04206      7.49293      8.43653         0.294746      0.346883      0.168451
Pb       3.67681      7.51369     12.68953         0.547887      0.229573      0.459482
Pb      15.10370      7.50290     12.66588         0.018245     -0.211483     -0.205284
Pb       3.56658     11.51415      4.27604         0.461379     -0.468097      0.151087
Pb       3.94729     11.36963      0.18544        -0.483800      0.275739     -0.894274
Pb      15.00626     11.50866      4.25797         0.355275     -0.368130      0.340816
Pb       0.05551     11.45409     16.98993        -0.145465     -0.709352     -0.065757
Pb       3.85826     11.41615      8.47642        -0.693078     -0.361124     -0.433506
Pb      15.03118     11.25617      8.58788         0.662373      0.788731     -0.435388
Pb       3.59487     11.20820     12.89892         0.486844      0.206060     -0.518389
Pb      15.11548     11.26599     12.66452         0.512140      0.266799      0.072308
Pb       7.47144      3.65654      4.11306         0.722463      0.552179      0.361226
Pb       7.61046      3.83862      0.01061        -0.057982     -0.526355     -0.567797
Pb       7.51749     15.16601      4.30127         0.152324     -0.005149     -0.536993
Pb       7.60065     15.08543      0.06148         0.150879      0.386870     -0.072361
Pb       7.79508      3.78962      8.25983        -0.960749      0.008788      0.934628
Pb       7.56590     15.11845      8.40339         0.120879      0.552575     -0.295404
Pb       7.45524      3.76320     12.70523         0.940053      0.346154      0.391391
Pb       7.64386      0.19112     12.67531        -0.412028     -1.153845      0.525726
Pb       7.69407      7.47932      4.41296        -0.340093      0.151742     -0.827945
Pb       7.47494      7.65066     16.93127         0.626776     -0.153515      0.250533
Pb       7.63958      7.64204      8.42148        -0.311763     -0.443244      0.679266
Pb       7.57881      7.61093     12.81142        -0.034098     -0.160465     -0.562735
Pb       7.52423     11.20494      4.16450        -0.315010      0.637134      0.643020
Pb       7.75773     11.45221     16.98247        -0.540728     -0.143234     -0.054189
Pb       7.47673     11.47317      8.36043         0.542025     -0.352927      0.505115
Pb       7.50280     11.27978     12.69996        -0.062412      0.497834     -0.243378
Pb      11.40423      3.81315      4.09736        -0.094721      0.199714      0.411700
Pb      11.44233      3.78419      0.03459        -0.140608     -0.486010     -0.462169
Pb      11.45561     15.16488      4.27123        -0.635313     -0.108340     -0.440523
Pb      11.41848     15.01378     16.93475        -0.196907      0.364694      0.292809
Pb      11.42703      3.70312      8.43995         0.148085      0.576439      0.581198
Pb      11.29615     15.19834      8.47321         0.156246     -0.854047      0.233390
Pb      11.35164      3.76986     12.78394         0.016944      0.475540     -0.690169
Pb      11.39380      0.06836     12.77497        -0.322248     -0.084596     -0.582773
Pb      11.50764      7.59318      4.12562        -0.105640      0.041823      0.200894
Pb      11.26672      7.49448     16.90127         0.364164      1.009306      0.726870
Pb      11.35020      7.56825      8.33367         0.487736      0.061589      0.777510
Pb      11.27050      7.49548     12.58561         0.638956      0.137731      0.866820
Pb      11.44273     11.31340      4.23191        -0.574564      0.413770      0.132035
Pb      11.45620     11.44921     16.89547        -0.601568     -0.245866      0.323666
Pb      11.39353     11.44524      8.64427        -0.360714      0.280959     -0.551874
Pb      11.34823     11.28101     12.80162        -0.329744      0.275499     -1.104267
Ti       1.93082      1.98231      2.33762        -0.275317     -0.327442     -1.614405
Ti       1.97075      1.90868     15.16050        -0.727525     -1.395391     -1.045241
Ti       1.86231     13.34754      2.19999         0.353292      0.003719      0.136321
Ti       1.88236     13.22206     14.89924         0.425612      0.772623      1.519652
Ti      13.32799      1.85483      2.25716        -0.975745      1.218522      0.420905
Ti      13.24430      1.89827     14.95061         0.831295     -0.098478      0.065961
Ti      13.32310     13.35741      2.23240        -2.033794     -0.288127     -0.499843
Ti      13.28893     13.23561     14.88902         0.049638      0.860120      1.003682
Ti       1.87590      1.86778      6.57825        -0.491833      0.704633     -0.122136
Ti       1.79526     13.27007      6.60057        -0.508941     -0.452675      1.389971
Ti      13.26581      1.83173      6.50870         0.479272      0.690085     -0.286241
Ti      13.27647     13.40921      6.46355        -0.558068     -1.262913     -0.018826
Ti       1.85467      1.95981     10.62456         0.901817     -0.619711     -0.066305
Ti       1.92951     13.24333     10.79187        -1.401274      0.056473      0.029812
Ti      13.27250      1.88041     10.60111        -0.763567      0.701756      0.640360
Ti      13.24164     13.39041     10.83795        -0.490357     -0.706245     -1.068251
Ti       1.87972      5.75229      2.23703         0.472121     -0.199692     -0.675025
Ti       1.91424      5.64499     14.98569         0.197964      0.626942      0.111318
Ti      13.33117      5.72672      2.07723        -1.179887      0.479828      2.601655
Ti      13.34594      5.78417     14.97082        -0.195385     -1.564341     -1.184550
Ti       1.95879      5.74408      6.52689        -0.174268     -1.118138     -0.108479
Ti      13.33476      5.65747      6.49890        -0.561786      0.733923      0.511004
Ti       1.99685      5.73528     10.60416        -1.134198     -1.023631     -0.123516
Ti      13.35982      5.63054     10.67748        -0.166185      0.469815      0.088437
Ti       1.76717      9.53217      2.40085         0.548243      0.731225     -1.063323
Ti       1.90497      9.42418     15.05300        -1.386446      1.399227     -0.753107
Ti      13.20746      9.59717      2.15407         0.356471     -0.804869     -0.901127
Ti      13.22280      9.46400     14.95555         0.547331      0.572145      1.320782
Ti       1.76543      9.45029      6.48479         0.112877      1.544566      0.329719
Ti      13.19026      9.61922      6.52389         0.729968     -1.209390     -0.704687
Ti       1.90159      9.44073     10.66325        -0.333171      0.357364      0.735917
Ti      13.29006      9.50576     10.71011        -0.729363     -1.181682      0.030682
Ti       5.71035      1.84878      2.28753        -0.543329     -0.025081     -0.055815
Ti       5.71484      1.88197     15.05438         1.095163     -0.123759     -1.327720
Ti       5.67178     13.27952      2.29950        -0.611120      0.700665      0.105075
Ti       5.64986     13.29953     14.93461        -0.108628     -0.180251      2.029970
Ti       5.62230      1.84474      6.37857         1.610489      0.217409      0.208645
Ti       5.56186     13.30623      6.37567         1.061837     -0.272131     -0.760825
Ti       5.72394      1.94606     10.73175        -0.973227     -1.506676     -0.515603
Ti       5.64385     13.36769     10.67608         1.016464     -0.881076      0.694561
Ti       5.65244      5.67899      2.19900         0.368549      0.233518      0.530378
Ti       5.72408      5.67412     14.85644        -0.452845     -0.008311      0.228333
Ti       5.74260      5.63198      6.47874        -0.271938      0.036665     -0.968957
Ti       5.77913      5.72739     10.73135        -0.408338      0.013981     -0.991160
Ti       5.63129      9.45521      2.29689        -0.533713      0.193816      1.327715
Ti       5.64110      9.47257     14.98204        -0.105891      1.529058     -0.831850
Ti       5.58819      9.39745      6.49909        -0.211980      0.964627     -1.180886
Ti       5.61553      9.47724     10.70598         0.692852     -0.039822      0.549385
Ti       9.53941      1.89838      2.18918         0.122597     -1.253875     -0.316942
Ti       9.48627      1.90332     15.01018        -0.591533     -0.030141      0.000809
Ti       9.41264     13.21495      2.30233         1.153986      1.279184      0.071700
Ti       9.37914     13.39914     14.76616         1.029426     -1.305461      0.432073
Ti       9.48430      1.88231      6.38285        -0.081866     -0.590255     -1.318213
Ti       9.37992     13.26992      6.34621         1.292835      0.202531      1.859618
Ti       9.45888      1.88810     10.65324         1.176263      0.574107      1.217758
Ti       9.37450     13.25888     10.69867         1.165610     -0.173563      0.724846
Ti       9.46321      5.72062      2.18542        -0.385745     -0.308675      0.887923
Ti       9.46770      5.70212     15.03222         0.491650     -0.086774     -2.302598
Ti       9.56582      5.68803      6.33990         0.272019      0.160338      0.187076
Ti       9.51335      5.63996     10.66560         0.715620     -0.087125      1.090585
Ti       9.39844      9.41495      2.25702         0.836811      0.229150     -0.389312
Ti       9.40843      9.49952     14.95732         0.322655      0.128942      1.601692
Ti       9.41194      9.50669      6.52630         1.607406      0.340336      0.622324
Ti       9.46286      9.43215     10.66382        -0.561376      1.438824     -0.704354
O       1.85605      1.95523      0.53040         0.202223      0.005770      0.071197
O       1.92203      1.92155     13.34751         0.092480      0.047238      0.049099
O       1.85309     13.33340      0.43183         0.084356     -0.173168      0.771636
O       1.82749     13.22464     13.10956         0.265180      0.111467      0.020564
O      13.24623      1.97423      0.49215        -0.098206      0.128937     -0.569009
O      13.26905      1.76568     13.15833         0.128799      0.802415      0.608962
O      13.23683     13.30735      0.42379         0.045858      0.011498      0.340543
O      13.26901     13.39428     13.14003         0.045736     -0.479510     -0.677561
O       1.96215      1.93107      4.73857        -0.339349     -0.558328     -0.062263
O       1.80799     13.44189      4.88721        -0.105358     -0.247845     -1.797341
O      13.18262      1.82458      4.70293         0.151990      0.298153      0.518923
O      13.31651     13.45748      4.64795         0.080330     -0.379492      0.378146
O       1.93028      1.89791      8.81585        -0.028443     -0.108005      1.220494
O       1.90665     13.25758      8.99404         0.404055      0.100320      0.605678
O      13.29654      1.76782      8.83303         0.172633      0.141666      0.118012
O      13.20854     13.40243      9.03433         0.225645     -0.192303     -0.161110
O       1.90686      5.89761      0.45070         0.158843     -0.742163      0.101509
O       2.00566      5.66757     13.21095        -0.439818     -0.233203     -0.038743
O      13.38110      5.71728      0.38372        -0.094701     -0.239030     -1.717823
O      13.56856      5.46979     13.19192        -0.799147      1.075898      0.604152
O       2.00428      5.67636      4.67062        -0.903415      0.244964      0.575520
O      13.33392      5.68358      4.72540        -0.072253     -0.055329      0.035663
O       1.87312      5.73021      8.82703         0.416052      0.021442      0.361349
O      13.43726      5.71103      8.86453        -0.532639     -0.037892     -0.154512
O       1.75249      9.72036      0.61389         0.735280     -0.730331      0.078963
O       1.81999      9.55123     13.19993         0.262527     -0.237948      1.229294
O      13.15375      9.67392      0.38093         0.223639     -0.218789      0.719018
O      13.26739      9.41553     13.19807         0.074540      0.613374     -0.874543
O       1.76232      9.52394      4.70789         0.061637     -0.162901     -0.499844
O      13.31296      9.59778      4.71430        -0.478239      0.024321      0.121405
O       1.79735      9.46194      8.92878         0.642324      0.117506     -0.173201
O      13.20490      9.53900      8.90892         0.324904     -0.088743      0.558709
O       5.71169      1.88988      0.51733        -0.018526      0.018771     -0.690273
O       5.79635      1.90648     13.18594        -0.302518      0.109430      0.864861
O       5.66501     13.44942      0.46789         0.084526     -0.454536      0.516024
O       5.62714     13.25177     13.24753         0.034306     -0.014465     -2.212720
O       5.76641      1.90624      4.58836        -0.520256     -0.059661      0.489652
O       5.63173     13.37422      4.57183        -0.228866     -0.356304      1.340703
O       5.71598      1.81112      8.92881        -0.081008      0.231630      0.076375
O       5.64511     13.32467      8.84842        -0.069263      0.182353      0.755474
O       5.53740      5.73334      0.36326         0.535954     -0.059512      0.612253
O       5.64774      5.61399     13.04088         0.293318     -0.036054      1.109950
O       5.71183      5.62630      4.62256         0.141778      0.344220      1.505204
O       5.81054      5.59420      8.90057        -0.581120      0.457189      0.737228
O       5.63786      9.46408      0.53157        -0.041819     -0.104628     -0.822394
O       5.73791      9.62402     13.17096        -0.597845     -0.334529      1.174163
O       5.50623      9.39146      4.70286         0.682579      0.056693      0.677928
O       5.67704      9.26100      8.92746        -0.348502      0.588184     -0.153906
O       9.69003      1.89722      0.35255        -0.580506      0.543922      0.830194
O       9.41610      1.73201     13.18536         0.238206      0.861874      0.710083
O       9.44042     13.10031      0.52564        -0.102058      0.469126     -0.538575
O       9.39957     13.43374     12.99475         0.348175     -0.499817      1.082447
O       9.58085      1.86080      4.55481        -0.392742     -0.210317      1.438456
O       9.45121     13.35946      4.62518        -0.230727     -0.066122     -0.673702
O       9.41196      2.10424      8.91516         0.246201     -0.653663     -0.331192
O       9.39123     13.16272      8.90366        -0.082485      0.472852      0.114988
O       9.51088      5.77207      0.43207        -0.396834     -0.683629     -1.448199
O       9.50141      5.78143     13.17317        -0.114361     -0.038125      1.377650
O       9.64924      5.93701      4.55344        -0.841818     -0.655262      1.288266
O       9.62076      5.52779      8.91348        -0.395504      0.135437     -0.078331
O       9.45897      9.49123      0.47936        -0.493508      0.083736      0.446629
O       9.40777      9.42951     13.22770         0.142184      0.025608     -1.185365
O       9.56981      9.39149      4.78250        -0.395404     -0.131636     -0.986396
O       9.42392      9.65090      8.85041        -0.018055     -0.724800      1.149724
O       3.76745      1.93382      2.67388         0.114528     -0.375235     -0.004361
O       3.91194      1.89971     15.41762        -1.667472      0.698638      0.161120
O       3.75494     13.31315      2.64901        -0.902927     -0.326931     -0.251437
O       3.75779     13.37431     15.39668        -0.084160     -0.339717     -0.488216
O      15.14326      1.93474      2.55515         0.806254      0.060954      0.498559
O      15.19086      1.87659     15.35004        -0.444914      0.187851      0.300722
O      15.10983     13.43054      2.52463         1.042203     -0.260722      0.306734
O      15.19548     13.42121     15.32428        -0.511152     -0.770711     -0.410226
O       3.82035      1.84923      6.85194         0.285126     -0.306788     -0.179804
O       3.78763     13.26659      6.82645        -0.165147      0.012661      0.295211
O       0.03392      1.96954      6.82206        -0.375727     -0.934163     -0.199033
O      15.09899     13.22701      7.03401         0.453997      0.147226     -0.276777
O       3.75835      1.83261     11.07386        -0.388395      0.535272     -0.193666
O       3.80551     13.33559     11.17827        -0.131425     -0.234638     -0.478613
O      15.09773      1.95803     11.01569         1.625111     -0.089724      0.065812
O      15.17045     13.29493     11.05850         0.413288      0.018866      0.233529
O       3.74609      5.70474      2.61236         0.188504     -0.133596     -0.245404
O       3.83870      5.55860     15.34921        -0.097249      0.448238     -0.480750
O      15.19709      5.70551      2.69955        -0.080056      0.265155     -0.999670
O       0.01830      5.78843     15.33519         0.423186      0.017193      0.130044
O       3.80196      5.61969      6.64311         1.459056      0.728779      0.820905
O       0.05028      5.71432      6.77247        -0.649818     -0.354762     -0.168580
O       3.84585      5.60777     11.11900        -0.578353      0.262679     -0.544231
O       0.01258      5.72979     11.00657         0.831587      0.111608      0.185177
O       3.71978      9.61470      2.65673        -0.114922     -0.106891     -0.230808
O       3.73291      9.44742     15.50585         1.160199      0.570790     -0.265346
O      15.08877      9.51687      2.50695         0.061581      0.187577      0.722386
O      15.18358      9.50175     15.45425         0.034164     -0.019968     -0.471390
O       3.69150      9.40974      6.81123         1.031165      0.088553      0.419258
O      15.11983      9.52550      6.81777        -0.316857      0.139363      0.507738
O       3.75446      9.48470     11.27934        -0.026885     -0.065938     -0.948540
O       0.02058      9.42004     10.96323        -0.989471      0.196322      0.513900
O       7.57868      1.82238      2.67485         0.744281      0.411655     -0.619326
O       7.59225      1.80782     15.57439         0.594512      0.177909     -0.485166
O       7.47474     13.24731      2.68320         1.296508      0.702901     -0.081298
O       7.61680     13.33670     15.38027        -0.527851      0.260520     -0.273512
O       7.61588      1.79590      6.78910        -0.164983      0.588820     -0.283732
O       7.48789     13.30239      6.76008         0.650977      0.047641     -0.045640
O       7.61571      1.88713     11.13359        -0.249487      0.331598     -0.596542
O       7.55493     13.19572     11.11108        -1.249311      0.699098     -0.568804
O       7.50290      5.81066      2.50293         0.137316     -0.212478      0.147450
O       7.58321      5.70822     15.23272        -0.536120      0.316072      0.509752
O       7.67885      5.76219      6.83750        -0.451186     -0.296365     -0.830069
O       7.62374      5.73042     11.05180        -0.151909      0.096746      0.064422
O       7.50668      9.28227      2.72424         0.311904      0.361991     -0.144960
O       7.50526      9.53840     15.38656         0.267926     -0.399039     -0.000043
O       7.58511      9.37648      6.79439        -1.243861      0.163461     -0.140240
O       7.54400      9.40745     11.20015         0.514170     -0.059406     -0.645204
O      11.36299      2.05509      2.63358         0.652104     -0.424216     -0.553480
O      11.35489      2.04931     15.24255         0.617869     -0.193894      0.073587
O      11.32367     13.24644      2.58607         0.117570     -0.144333      0.229702
O      11.38356     13.24326     15.27779        -0.377432     -0.127997     -0.461037
O      11.36699      1.83768      7.03504         0.301169      0.298983     -1.360026
O      11.39172     13.41516      6.76873        -0.829821     -0.179631      0.044862
O      11.39256      1.97865     11.04527        -0.658012     -0.390909      0.017069
O      11.35260     13.27484     11.03149        -0.214010     -0.152635      0.509370
O      11.29246      5.74322      2.47458         2.613543     -0.246002     -0.065302
O      11.41557      5.81894     15.25239        -0.020158     -0.618232      0.159268
O      11.38289      5.58720      6.85581         0.503746      0.193488     -0.398573
O      11.48511      5.69922     11.20037        -1.315348     -0.391730     -0.484468
O      11.35635      9.49233      2.65844        -0.609404      0.363124     -0.205808
O      11.27680      9.48082     15.41236         0.737288      0.271538     -0.843804
O      11.38687      9.55573      6.97852        -1.208122     -0.362758     -0.365003
O      11.33619      9.44690     11.08199         0.477556      0.822853      0.031703
O       1.97275      3.88284      2.57886        -0.810285     -0.693806      0.103472
O       1.79050      3.79798     15.32766         0.410627      0.305942      0.548323
O       1.82784     15.19873      2.67771         0.470936      0.581083     -0.125246
O       1.86133     15.14987     15.37747         0.380347      0.819269     -0.186054
O      13.30187      3.92746      2.67523         0.007882     -0.832966     -0.671563
O      13.34363      3.86544     15.34364        -0.178864     -0.631002      0.339298
O      13.10756      0.03845      2.56318         0.370407     -0.141556     -0.202720
O      13.23274     15.19845     15.32852        -0.238586      0.136935      0.016451
O       2.01208      3.77431      6.78017        -0.435726      0.289373      0.240579
O       1.98619     15.08747      7.02259        -0.542493      1.754797     -0.226737
O      13.41894      3.72065      7.01705        -1.099854      0.716728     -1.287337
O      13.37434     15.19940      6.83686        -0.026275      0.706995      0.262441
O       1.82340      3.84267     10.97459         0.398171     -0.809453      0.360289
O       1.77947      0.03327     11.16379         0.420403     -0.038191     -0.526091
O      13.19019      3.82844     10.91256         0.560870     -1.352669      0.239260
O      13.28996      0.05436     11.05292        -0.048201     -0.237872      0.364006
O       1.84440      7.60070      2.69336         0.263378      0.601371     -0.332311
O       1.93709      7.62492     15.34845        -0.028592     -1.183937      0.017506
O      13.31138      7.65176      2.44666        -0.113304     -0.719794      0.341018
O      13.30375      7.68232     15.34559         0.038338     -1.310020      0.051983
O       1.83812      7.64556      6.97748         0.218567     -1.330393     -0.802279
O      13.21934      7.59397      6.74743         0.061096     -0.562689      0.366090
O       1.91405      7.55486     11.12719         0.263054      0.170366     -0.272048
O      13.22617      7.56718     11.10475         0.632783      0.781525     -0.136002
O       1.72249     11.47712      2.81483         0.204823      0.439288     -0.521518
O       1.86015     11.40539     15.44653         0.283392      0.160677     -0.686604
O      13.18130     11.45234      2.67963         0.749218      0.134331     -0.371262
O      13.35636     11.37806     15.33661        -0.379660      0.596020     -0.748771
O       1.89216     11.39179      6.94666         0.135387     -0.593570     -0.201298
O      13.12473     11.43777      6.85802         0.720257      0.745961      0.052489
O       1.85219     11.34270     11.14881         0.253644      0.279994     -0.332784
O      13.31342     11.39271     11.06089        -0.307791     -0.689240      0.321205
O       5.65871      3.77601      2.53199         0.171456      0.685207     -0.014648
O       5.87945      3.80972     15.27372        -0.519767      0.093277      0.366373
O       5.63666      0.01088      2.62944        -0.029439     -0.247301      0.021432
O       5.64581      0.01884     15.30362         0.405195     -0.455044      0.277364
O       5.75848      3.71648      6.80669        -0.007575      0.820042     -0.226541
O       5.78713      0.01852      6.71413        -0.784015     -0.977507      0.137786
O       5.70786      3.73042     11.02174        -0.001478      1.572455      0.239419
O       5.65903      0.03374     11.06997         0.259563     -1.181350     -0.060086
O       5.44328      7.55569      2.56019         0.262324      0.417904     -0.245636
O       5.75913      7.63132     15.23884        -0.635748     -1.053853      0.065190
O       5.68331      7.54078      6.92479        -0.013377     -0.707352     -0.612402
O       5.62261      7.60246     11.24948         0.089428     -0.851864     -0.650332
O       5.72377     11.40145      2.58171        -0.325687     -0.948043     -0.074799
O       5.62356     11.44618     15.40182        -0.030062     -0.829212      0.090652
O       5.64551     11.33972      6.84768        -0.092971      0.040676     -0.335355
O       5.68933     11.31855     10.87358        -0.190129      1.259429      0.213765
O       9.46725      3.83378      2.58911        -0.700436     -0.270319     -0.292194
O       9.39050      3.81019     15.25286         0.157618     -0.013978      0.454621
O       9.51900     15.17561      2.35383        -0.361588      0.490228      0.530175
O       9.58880     15.18673     15.24671        -0.152561     -0.185747      0.346574
O       9.49240      3.75857      6.60768        -0.038328      0.828824      0.134945
O       9.48955      0.03836      6.88948        -0.361932     -1.122206     -0.306980
O       9.49122      3.84576     11.21434        -0.101083     -0.936184     -0.353830
O       9.52159      0.02479     11.06397        -0.357453     -0.010476     -0.858770
O       9.51015      7.55486      2.54171        -0.290984      1.492734      0.300965
O       9.41582      7.54522     15.48245        -0.394651      1.296600     -0.497605
O       9.50753      7.57065      6.95776         0.260892     -0.349073     -0.821327
O       9.57149      7.58460     11.01740        -0.684324     -0.355335     -0.328998
O       9.26720     11.36590      2.64919         0.472141     -1.447712      0.087151
O       9.34405     11.39392     15.26032         0.635239      0.317532     -0.482893
O       9.37203     11.40402      6.77379         0.241922      0.466307     -0.378102
O       9.45007     11.37007     11.09596         0.288078     -0.532624      0.297885
