  # total energy = -7865.34698442 
CRSYTAL
PRIMVEC
    15.010000000000000    0.0000000000000000    0.0000000000000000
     0.0000000000000000   15.010000000000000    0.0000000000000000
     0.0000000000000000    0.0000000000000000    16.400000000000000
PRESSURE
16.4928 16.808 7.15378 0.004827 0.05015 -0.044965
PRIMCOORD
320 1
Pb       3.58735      3.63962      4.07268         0.714909      0.580073      0.256842
Pb       3.81170      3.70212     16.31974        -0.366679      0.382343      1.160979
Pb       3.80917     14.93488      4.16412        -0.847170      0.171545     -0.409036
Pb       3.74715      0.05354     16.35508        -0.275659     -0.383037      0.503005
Pb      14.98782      3.77948      4.22341        -0.189611     -0.506070     -0.182868
Pb      14.96245      3.86795      0.06063        -0.044201     -0.681553      0.478452
Pb      14.98034     14.96340      4.21424         0.249879      0.337063     -1.010934
Pb      14.97466      0.03942     16.24913         0.429565     -0.359354      1.280209
Pb       3.85827      3.68318      8.17040        -0.248175      0.132322     -0.224261
Pb       3.86734     14.97706      8.35309        -0.441001     -0.107168     -0.147996
Pb       0.08702      3.67480      8.07389         0.166610      0.069641      0.523315
Pb       0.15521      0.01797      8.29859        -0.072815     -0.247891      0.291328
Pb       3.94347      3.76190     12.35641        -0.759837     -0.343321     -0.005830
Pb       3.76982      0.03562     12.29613         0.126756     -0.032608     -0.037223
Pb       0.00110      3.73523     12.26263         0.152186      0.057024      0.374171
Pb      14.92563     15.00801     12.25892         0.008473     -0.428859     -0.470003
Pb       3.57263      7.68049      4.18230         0.484376     -0.979755     -0.774852
Pb       3.77050      7.53270     16.34884        -0.693742     -0.715783      0.879467
Pb      14.85428      7.50415      4.13412         0.335456      0.159227     -0.349961
Pb      14.96497      7.46671      0.02748         0.517790      0.180923      0.348122
Pb       3.67052      7.50777      8.33925         0.038003     -0.484347     -0.302398
Pb      14.97353      7.45871      8.08074         0.459261     -0.044126      0.319753
Pb       3.79749      7.35305     12.40173        -0.204773      0.678170     -0.157349
Pb       0.10833      7.49196     12.27037        -0.106931      0.250716      0.454001
Pb       3.61797     11.24499      3.94398        -0.240140      0.384216      0.473139
Pb       3.68431     11.28884      0.08927        -0.363156      0.603849     -0.122831
Pb      14.80354     11.23153      4.21759         0.826826     -0.361815     -0.778857
Pb      14.96925     11.18977     16.37693        -0.183007      0.516384     -0.051825
Pb       3.56249     11.15328      8.25371         0.337168      0.688732      0.029507
Pb      14.90794     11.15275      8.19517         0.890027      0.301564      0.198222
Pb       3.71144     11.15663     12.47733         0.100960     -0.025483     -0.379950
Pb      14.98739     11.18669     12.29843        -0.187598     -0.004111      0.580958
Pb       7.44943      3.78288      4.28761         0.494831     -0.041637     -0.899722
Pb       7.48603      3.77952      0.09552        -0.209678     -0.122694      0.594770
Pb       7.44004      0.06627      4.22495         0.853581     -0.485419     -0.710222
Pb       7.57824      0.03846      0.01349        -0.202435     -0.023423      0.185690
Pb       7.61361      3.83406      8.25219        -0.116396     -0.194421     -0.188538
Pb       7.40655     14.77919      8.35828         0.212921      0.794988     -0.184430
Pb       7.59818      3.61180     12.38681        -0.208874      0.436146     -0.697519
Pb       7.50572      0.03284     12.29105         0.020570     -0.456105     -0.305710
Pb       7.38327      7.47345      4.18590        -0.107540      0.424190     -0.382011
Pb       7.48257      7.44339      0.11066        -0.494273     -0.122197     -0.067027
Pb       7.49908      7.53380      8.10257         0.184359     -0.506364      0.651063
Pb       7.58821      7.40134     12.33831        -1.383959      0.515360      0.050637
Pb       7.14484     11.27363      4.15494         1.560666     -0.684321      0.046527
Pb       7.42898     11.27197      0.05089        -0.041040      0.086044      0.677303
Pb       7.36637     11.09953      8.31773         0.996725      0.721975     -0.605487
Pb       7.52558     11.19144     12.52381        -0.423869     -0.107048     -0.876603
Pb      11.44335      3.69278      4.20550        -0.901446     -0.085980     -0.010302
Pb      11.27784      3.84281      0.04849         0.006634     -0.704234      0.495463
Pb      11.28532      0.02364      4.21786        -0.451620     -0.249659     -0.360710
Pb      11.29600      0.08217     16.33855        -0.199644     -0.403291      0.846035
Pb      11.39737      3.75562      8.24251        -0.580444     -0.239000     -0.233643
Pb      11.34611     14.92257      8.22776        -0.042838      0.058892     -0.045642
Pb      11.33874      3.76255     12.31012        -0.279592     -0.492206     -0.522060
Pb      11.29925     14.87313     12.28442        -0.247826      0.220525      0.106870
Pb      11.07309      7.43554      4.15107         0.429508      0.792984     -0.214037
Pb      11.22663      7.44042      0.06455         0.024750      0.643887     -0.328728
Pb      11.21639      7.53302      8.17199        -0.434804     -0.292980      0.227168
Pb      11.22542      7.46830     12.42667         0.810334      0.101351      0.176626
Pb      11.07562     11.35688      4.23290        -0.025924     -0.811045     -0.130371
Pb      11.09534     11.35278      0.03783         0.881954     -0.515310      0.012270
Pb      11.13839     11.21341      8.20541        -0.320623     -0.196567     -0.171602
Pb      11.26421     11.19339     12.40461         0.194223      0.093508      0.162029
Ti       1.85925      1.87422      2.07922        -1.287260     -0.944687     -0.196773
Ti       1.79631      1.90088     14.29005         1.948724     -0.104688     -0.131056
Ti       1.78007     13.21734      2.10768         0.434964     -0.444187     -0.685418
Ti       1.87340     13.17489     14.20387        -0.381806     -1.128813      1.012451
Ti      13.04285      1.89223      2.14918         1.602285     -1.141588     -0.808024
Ti      13.12616      1.86568     14.38683        -0.046074     -0.206168     -0.246327
Ti      13.06539     13.12071      2.07655         0.704042      0.535971     -0.617135
Ti      13.12544     13.11832     14.48934         0.287575     -1.858842     -0.569078
Ti       1.95714      1.80583      6.17030         0.585435      0.167867      0.561814
Ti       1.92164     13.10070      6.25007        -0.019589      0.050119     -0.420979
Ti      13.17453      1.78964      6.25557         0.044112      0.299809     -0.589136
Ti      13.21379     13.02289      6.18995        -1.187169      0.592351     -0.015115
Ti       1.99501      1.93622     10.36628        -0.965151     -0.197472     -0.502388
Ti       1.85506     13.11052     10.31991        -0.377322      0.684241     -0.346623
Ti      13.18362      1.84749     10.24759        -0.070179     -0.458179     -0.051053
Ti      13.10321     12.98656     10.26226         0.376389      2.290547      0.631928
Ti       1.81451      5.55709      2.05438         0.895533      1.910067     -0.644459
Ti       1.89528      5.54768     14.40084         0.000677      1.146257     -0.403504
Ti      13.04616      5.65036      2.19429         0.628803     -0.129512     -0.570814
Ti      13.17384      5.56414     14.34582        -0.485081      1.256125     -0.809398
Ti       1.95035      5.59643      6.10236         0.003009      0.100051      0.313200
Ti      13.12733      5.66447      6.23057         0.992926     -1.088173     -0.449906
Ti       1.79917      5.60158     10.23180         1.226265     -0.294757      0.899928
Ti      13.10459      5.57368     10.26814         1.349266      1.002869     -0.230959
Ti       1.74683      9.41715      2.12466        -0.006848     -0.903613     -1.009226
Ti       1.85274      9.35916     14.48656        -0.205317     -0.059006     -0.499488
Ti      13.02605      9.38979      2.10396        -0.189236      0.249370     -0.020031
Ti      13.14881      9.25504     14.36216        -0.858195      1.542673      0.289322
Ti       1.78605      9.33967      6.08666        -0.825372      1.302690      0.174880
Ti      13.02619      9.31825      6.20937        -0.129602      1.388866     -1.873989
Ti       1.87494      9.39252     10.35343        -0.151855     -0.184988     -0.139182
Ti      13.08326      9.31752     10.20547        -0.321832     -0.518523      1.011380
Ti       5.59845      1.87166      2.16942         0.699340      0.090527     -0.956317
Ti       5.69959      1.90675     14.44300        -0.622408     -0.832970     -0.442582
Ti       5.60562     13.12858      2.15369        -0.378235      0.666816     -1.234771
Ti       5.61133     13.17654     14.38404        -0.789049     -0.062275     -0.331684
Ti       5.73319      1.81908      6.15728        -0.548044      1.013310      1.191432
Ti       5.59622     13.12239      6.19294        -0.237975     -0.709803      0.870953
Ti       5.71597      1.89140     10.25470        -0.344384     -0.574627     -0.430556
Ti       5.56463     13.03241     10.35258        -0.064619      1.414623     -0.210096
Ti       5.52723      5.61240      2.19005         0.023102     -0.128680     -0.842556
Ti       5.64107      5.58918     14.37042         0.258702      1.745489      0.540605
Ti       5.64763      5.60948      6.18788        -0.997340     -0.137691     -0.154167
Ti       5.57659      5.56973     10.27590         0.825440      0.706482     -0.746625
Ti       5.54671      9.29492      2.05242         0.019372     -0.140643      0.423811
Ti       5.58081      9.40425     14.45070        -0.095536     -0.827029     -1.486009
Ti       5.48948      9.33307      6.28108         0.159887      0.419434     -1.583625
Ti       5.61894      9.38646     10.21551        -0.242691     -1.330686      2.654601
Ti       9.35749      1.85965      2.13742         0.068283      0.781557     -0.327151
Ti       9.44551      1.89908     14.27402        -0.350722     -0.570384      0.168282
Ti       9.35021     13.16438      2.17759        -0.192671     -0.035351      0.277304
Ti       9.32028     13.11825     14.36924         0.767222      0.692815     -0.421220
Ti       9.43908      1.82140      6.21119         0.023964      0.343017      0.092387
Ti       9.37121     13.13881      6.25007        -0.377572     -0.255068     -0.921748
Ti       9.40990      1.81493     10.13238         0.585137      0.774822      0.487225
Ti       9.35713     13.04385     10.27854        -0.347112     -0.123151      0.612195
Ti       9.31968      5.59816      2.11925        -0.395476     -0.362589      1.007919
Ti       9.35779      5.55475     14.41161         0.334394      0.487324     -0.200654
Ti       9.38128      5.60949      6.18864         0.766108     -0.727294     -0.047022
Ti       9.36006      5.62546     10.34228        -0.591426     -0.834034     -1.343408
Ti       9.32089      9.37981      2.10771         0.064128      0.986989     -0.214372
Ti       9.27192      9.30571     14.46550         1.373557      0.173491      0.362497
Ti       9.27404      9.35231      6.14798        -0.044408      0.582592      0.099393
Ti       9.35143      9.26964     10.40200        -0.214824      1.764868     -1.477474
O       2.07935      1.91048      0.24773        -1.188789      0.127260      0.107078
O       1.87874      2.07751     12.44451        -0.146581     -0.878918      1.233925
O       1.95247     13.25899      0.29200        -0.420714     -0.557114     -0.310192
O       1.81543     13.11120     12.38437         0.049888      0.283404      1.143165
O      13.07203      1.92546      0.25119        -0.192365     -0.265156     -0.136739
O      13.22870      1.83532     12.57263        -0.570310      0.506583     -0.258093
O      13.18957     13.15032      0.12005        -0.498435      0.306888      1.447388
O      13.10473     13.09477     12.63841         0.090517     -0.148062     -1.022490
O       1.83664      1.80780      4.38569        -0.017498      0.098682     -0.553153
O       1.90092     13.21648      4.40435        -0.084782     -0.318346      0.276130
O      13.21548      1.84123      4.33012        -0.347779      0.125445      1.142565
O      13.14639     12.94177      4.28798        -0.011593      0.611729      1.254063
O       1.98963      1.97060      8.53065        -0.152154     -0.269354     -0.643709
O       1.94071     12.99632      8.47703        -0.602196      0.566915     -0.092401
O      13.18788      1.82567      8.40385        -0.050781     -0.148472     -0.331879
O      13.10690     13.14476      8.48607        -0.156158     -0.087814     -1.570792
O       1.87953      5.56386      0.15028        -0.442972     -0.398198      1.091307
O       1.95340      5.60088     12.52112        -0.385437      0.135498      0.349301
O      12.94832      5.64125      0.26579         0.713276     -0.139063     -0.088789
O      13.14004      5.59216     12.43992         0.109743      0.052379      1.063208
O       1.99400      5.56180      4.31359        -0.367276      0.090678     -0.738202
O      13.20590      5.63168      4.33562        -0.439444     -0.201699      0.177118
O       1.93073      5.57007      8.44418         0.068279      0.511186     -0.727915
O      13.22814      5.72152      8.40059        -0.124732     -0.451700      0.138075
O       1.79376      9.37376      0.16056         0.202454      0.025726      1.292638
O       1.85195      9.42357     12.57612         0.278048     -0.232008     -0.393298
O      13.07271      9.24907      0.26365        -0.212292     -0.210699     -0.211173
O      13.12351      9.45151     12.55275        -0.181091     -0.621722     -0.438672
O       1.79189      9.39544      4.23825         0.264888     -0.090744      0.378109
O      13.12517      9.45342      4.30609        -0.078276     -0.093770      0.349989
O       1.75238      9.43136      8.47928         0.191427     -0.405583      0.424919
O      13.10305      9.27009      8.37946         0.210240      0.345742      0.143823
O       5.55047      1.88342      0.21702         0.686314     -0.195975      0.488020
O       5.79240      1.92395     12.57470        -0.214853      0.033590      0.194822
O       5.48801     13.18740      0.31064         0.637164     -0.186606     -0.442080
O       5.66137     13.16941     12.52522        -0.107469     -0.227174      0.357354
O       5.62161      1.91273      4.33312         0.594060      0.016882     -0.300717
O       5.54278     13.05776      4.31771         0.250584     -0.027618      0.824895
O       5.60512      1.76934      8.40732         0.258660      0.518914      0.163118
O       5.57442     13.14245      8.45519         0.282889      0.356702      0.226708
O       5.68460      5.61771      0.24776         0.321638      0.370770     -0.048126
O       5.64835      5.62581     12.52950        -0.128503     -0.389469     -0.140000
O       5.55344      5.55705      4.32448         0.462563      0.085757      0.290070
O       5.59918      5.57056      8.40298        -0.094405      0.266644      0.845834
O       5.56515      9.34010      0.19911        -0.016571     -0.239050      0.477084
O       5.70242      9.52955     12.55643        -0.607286     -0.029267      0.446998
O       5.59194      9.24225      4.31974        -0.150474      0.866977      1.042249
O       5.64405      9.39122      8.43470        -0.270895     -0.549700     -0.875566
O       9.46445      1.83909      0.25339        -0.227985     -0.155211      0.134870
O       9.51121      1.88189     12.43208        -0.467131      0.440622      0.806585
O       9.38568     13.13608      0.29290        -0.093203      0.365644     -0.316293
O       9.33272     13.15577     12.52344        -0.117872     -0.415423      0.323310
O       9.44283      1.80041      4.39042        -0.241420      0.369514     -0.387911
O       9.32367     13.22899      4.37410         0.078380     -0.610546      0.672478
O       9.41816      1.98245      8.31466         0.204305     -0.384118      0.925764
O       9.37452     13.04135      8.45137         0.133088      0.337440     -0.052196
O       9.30093      5.56022      0.28972         0.205125      0.134410     -0.908387
O       9.28975      5.76669     12.57189         0.822717     -1.095945     -0.351581
O       9.39934      5.64321      4.37177         0.001356      0.117439     -0.583214
O       9.50174      5.64804      8.48075        -0.429397     -0.070611      0.326627
O       9.40051      9.51104      0.16741        -0.135347     -0.472343      0.789370
O       9.20641      9.41246     12.57083         0.491538     -0.290753      0.340820
O       9.33198      9.36083      4.32802        -0.562868     -0.427527      0.070183
O       9.30006      9.38688      8.43826         0.129969     -0.495666      1.003327
O       3.72002      1.81218      2.37014         0.552830      1.228820      0.357191
O       3.77002      1.50256     14.49286         0.156335      0.877907     -0.141488
O       3.70662     12.94089      2.36187         0.310547     -0.159555      0.245342
O       3.73636     13.42447     14.56141         0.225387     -0.114322     -0.290914
O      14.97993      1.63792      2.37313         0.515920      0.012268     -0.402876
O      15.00028      2.10729     14.67904         0.364159      0.150871      0.168272
O      14.96335     13.32497      2.30959        -1.129941      0.283536      0.295189
O       0.05432     12.80484     14.58049        -0.361782      0.473353      0.024396
O       3.86666      1.99884      6.28161        -0.804693      0.580816      0.454529
O       3.74435     12.91854      6.58353         0.670538      0.070550     -0.771785
O       0.09204      1.64829      6.52621        -0.760464      0.269915     -0.221773
O       0.01974     13.23675      6.52052        -0.601554      0.162189     -0.109474
O       3.82657      2.17270     10.53838        -0.132672      0.596605      0.235921
O       3.71070     12.99376     10.57064         0.512164     -0.504188      0.125375
O       0.04042      1.58855     10.50132        -0.219893     -0.165488     -0.074318
O      14.90171     13.41704     10.44665         1.594635      0.246685      0.375487
O       3.71899      5.34991      2.11151        -0.402576     -0.435183      0.626219
O       3.71701      5.91910     14.64853         1.422218     -0.368241     -0.364417
O      14.96685      5.91484      2.18757        -0.292146     -0.808240      0.235640
O       0.04666      5.34407     14.65317        -1.278993     -0.461176     -0.137968
O       3.78625      5.38259      6.32767         0.284618      0.275968      0.586858
O       0.09467      5.75630      6.30209        -1.282665     -0.033945      0.577276
O       3.76272      5.22225     10.50515        -0.458947      0.394223     -0.176569
O       0.04173      6.06032     10.43570        -1.176159     -0.349391      0.012565
O       3.65045      9.54157      2.31928         0.675932      0.035617     -0.214278
O       3.73498      9.08018     14.60084         0.153709      0.154023     -0.150988
O      14.92558      9.11156      2.28664         0.261020      0.145042     -0.005378
O       0.01079      9.63586     14.56224        -0.797605     -0.196637      0.158929
O       3.63266      9.43118      6.59989         0.551670      0.101294     -0.550654
O      14.92587      9.20610      6.22730         1.137547      0.163187      0.817307
O       3.78211      9.76962     10.48639        -0.760695     -0.588028     -0.035910
O      14.94743      9.20548     10.55911         0.539087     -0.346374     -0.176978
O       7.50753      1.64469      2.34409        -0.910520      0.139289     -0.077931
O       7.61382      2.33276     14.63735        -0.447114     -0.836909     -0.247743
O       7.49254     13.30330      2.34306        -0.169283     -0.186137      0.095983
O       7.41743     12.84713     14.67590         1.444586     -0.031391      0.048764
O       7.60825      1.59049      6.43824        -1.205856      0.246655     -0.299362
O       7.49020     13.41058      6.47459        -0.210919     -0.923770     -0.468030
O       7.53478      1.60601     10.44848         0.630502      0.104751      0.058017
O       7.41955     13.45053     10.42846         1.123976     -0.222187      0.243107
O       7.45725      5.86951      2.44977         0.381131     -0.036332     -0.444784
O       7.50839      5.23871     14.53969         0.232311      0.268936      0.350013
O       7.57940      5.74656      6.45649        -1.260292      0.247886     -0.053539
O       7.47211      5.98225     10.41200         0.787595     -0.253567      0.121177
O       7.44290      9.08615      2.22991        -0.310419     -0.010931      0.198890
O       7.39888      9.67216     14.71879         1.870334      0.091883     -0.162790
O       7.36413      9.21448      6.40345         1.486200      0.013032      0.042091
O       7.45718      9.04720     10.55877         0.194954      0.292398     -0.623425
O      11.21001      2.07341      2.40849         0.249375      0.474938      0.178410
O      11.27240      1.51559     14.56510         0.222182      0.419008     -0.257464
O      11.22050     12.90149      2.50510         0.183203      0.437369     -0.871944
O      11.25980     13.37579     14.52653        -1.211298      0.131845      0.626210
O      11.32141      2.05090      6.44556         0.537143     -0.192837     -0.016751
O      11.26516     12.85859      6.42410         0.618805      0.327071      0.028807
O      11.28105      2.23825     10.40133        -0.090632      0.008823      0.050687
O      11.25732     12.84258     10.50909        -1.248888      0.290072      0.277851
O      11.23026      5.27584      2.36573        -0.506743      0.616403      0.054750
O      11.23754      5.96782     14.51860         0.957499     -0.414848      0.261847
O      11.34277      5.66613      6.46514        -0.985829     -0.759250     -0.129020
O      11.33225      5.33903     10.41283        -1.311368     -0.398160      0.562067
O      11.18079      9.51099      2.46557         0.370048      0.361214     -0.559066
O      11.18826      8.95448     14.46113         0.239396      0.386897      0.443076
O      11.17685      9.41849      6.32499        -0.063405      0.139186      0.519525
O      11.21424      9.73944     10.46556         0.199133     -0.534852      0.197544
O       1.59905      3.76647      2.49214         0.381171     -1.262338     -0.591424
O       2.28063      3.70606     14.54358        -0.659661     -0.264675      0.046455
O       2.01258     15.00014      2.35213         0.044044      0.968116      0.366381
O       1.61073     14.99244     14.55991        -0.042008      0.819242     -0.399641
O      13.33340      3.69863      2.38236         0.143638      1.607508      0.185095
O      12.90120      3.74258     14.59003        -0.291233      0.025751      0.122284
O      12.84424      0.02308      2.31965         0.110731     -1.166504     -0.051554
O      13.39961     14.96554     14.50926         0.101711      1.175793      0.467369
O       1.77068      3.72675      6.43018         0.091478     -0.464298     -0.262844
O       2.14923     14.98180      6.47134        -0.487235      0.075938      0.389348
O      13.28535      3.72426      6.39429         0.143860      0.532622      0.020579
O      12.97922     14.93975      6.33146         0.002655     -0.439549      0.230969
O       1.42128      3.78373     10.50975         0.789793      0.299744     -0.592898
O       2.15801      0.04915     10.52149        -0.394411     -0.262227     -0.150458
O      13.53374      3.68117     10.48527        -0.696094      1.925828     -0.215788
O      12.81912      0.06220     10.52234         0.200573     -1.146670      0.054788
O       2.09114      7.42312      2.36794        -0.312807      0.851270     -0.264241
O       1.59131      7.46502     14.67152         0.265655      0.069105     -0.466372
O      12.88027      7.47849      2.43715        -0.369497     -0.072410     -0.201084
O      13.56913      7.42928     14.54266        -0.872541     -0.381518     -0.150300
O       1.95780      7.52932      6.25189         0.377156     -1.067933      0.798918
O      13.08378      7.54868      6.39883        -0.068873     -2.111729      0.210204
O       2.20671      7.53528     10.53278        -0.096520     -0.143870     -0.159773
O      12.73061      7.49685     10.48137         0.708861      0.220688      0.025854
O       1.64131     11.27625      2.37556         0.026049     -0.679483     -0.180488
O       2.10274     11.25383     14.61354         0.620625      0.649232     -0.047090
O      13.33019     11.28367      2.13368        -0.125441     -0.915902      0.342319
O      12.87101     11.11862     14.65505        -0.228687      0.972174      0.315163
O       1.62269     11.22976      6.36804         0.373743     -0.211601      0.216700
O      13.24762     11.14441      6.49328         0.199414      1.770544      0.045726
O       1.64275     11.29442     10.53976        -0.201179     -0.960904     -0.064129
O      13.37912     11.25234     10.47948        -0.024092     -1.636954     -0.067164
O       5.80745      3.73388      2.27321         0.033189     -0.661399      0.440710
O       5.36864      3.77721     14.60532        -0.073645     -0.654835     -0.151689
O       5.49836     14.96197      2.43793        -0.041102      0.684413     -0.004664
O       5.99939      0.06260     14.55277         0.013705     -0.817571      0.350389
O       5.91698      3.79328      6.48735        -0.088835     -1.666937     -0.322061
O       5.47369     14.98836      6.38764        -0.193892     -0.277993     -0.183632
O       6.02465      3.72579     10.55991        -0.452117      0.725738     -0.176195
O       5.28450      0.09078     10.52564         0.660697     -1.036800     -0.005123
O       5.28442      7.44591      2.41321         0.321623      0.939242     -0.396557
O       5.93439      7.49803     14.42426        -0.181337     -0.261642      0.995980
O       5.52505      7.46663      6.49335        -0.383229      0.020759      0.160944
O       5.23621      7.47527     10.53637         0.246240      0.397734     -0.600197
O       5.75699     11.19318      2.28499        -0.072628     -0.181723      0.174871
O       5.29212     11.26023     14.66989         0.120608      0.834835     -0.032677
O       5.74990     11.20537      6.48621         0.007592      0.643543     -0.522795
O       5.86672     11.26951     10.35598         0.506351     -0.837157      0.625669
O       9.08205      3.76993      2.35896         0.023669     -0.333058      0.062508
O       9.85467      3.75057     14.56478        -0.459751      0.036315     -0.319726
O       9.49556      0.05846      2.47852         0.519744     -1.510492     -0.582213
O       9.01952      0.03363     14.38706         0.226322     -0.285105      1.129386
O       9.24776      3.74830      6.32901         0.224112     -0.013064      0.337562
O       9.72079     14.96445      6.39533        -0.052179      0.075621      0.525622
O       9.08796      3.78108     10.44117         0.300043     -0.187575      0.435320
O       9.59833      0.00714     10.49968         0.318666     -0.585157     -0.448381
O       9.57221      7.52542      2.25572         0.114759     -1.015059      0.073506
O       9.08858      7.45047     14.71516        -0.402954      0.303266     -0.063073
O       9.49979      7.44410      6.45999        -0.309606      1.637926     -0.028433
O       9.68237      7.48677     10.65630        -0.080167     -0.012024     -0.557446
O       9.14594     11.25075      2.37086        -0.045977      0.070372      0.009349
O       9.68921     11.27913     14.61342        -0.862943     -0.477259     -0.498902
O       9.22828     11.22116      6.44582        -0.223071      0.001457     -0.120966
O       9.08142     11.20772     10.52998        -0.302876      0.557326      0.151183
