  # total energy = -7883.39249075 
CRSYTAL
PRIMVEC
    15.6000000000000000    0.0000000000000000    0.0000000000000000
     0.0000000000000000   15.6000000000000000    0.0000000000000000
     0.0000000000000000    0.0000000000000000    17.640000000000000
PRESSURE
-6.92057 -7.00234 -8.89122 -0.011457 0.054912 0.021536
PRIMCOORD
320 1
Pb       3.86075      3.85403      4.38905         0.090349      0.102183     -0.700635
Pb       3.87780      3.88416     17.61368         0.360059      0.250328     -0.675194
Pb       3.87863     15.57724      4.37269         0.258782      0.101214     -0.462301
Pb       3.87148     15.57401     17.60373         0.093169      0.020045     -0.614948
Pb      15.59329      3.87482      4.39421        -0.336287      0.364031     -0.862935
Pb      15.58590      3.88937     17.62223        -0.434492     -0.003506     -0.731693
Pb      15.57398     15.57456      4.37506        -0.228997     -0.058175     -0.695040
Pb      15.56092     15.59195     17.60481         0.052192      0.102542     -0.756928
Pb       3.87157      3.89217      8.79686         0.169332     -0.303656     -0.293373
Pb       3.87015     15.59260      8.78293         0.027582      0.064955     -0.408488
Pb      15.57845      3.88564      8.77515         0.044394     -0.064547     -0.108467
Pb      15.58909     15.58709      8.78723         0.069567     -0.143473     -0.063068
Pb       3.88188      3.84067     13.21195         0.192189     -0.014812     -0.595123
Pb       3.86878     15.57295     13.20234        -0.240639      0.145095     -0.642441
Pb      15.57954      3.85670     13.19894        -0.079734      0.338634     -0.526793
Pb      15.58050      0.00680     13.19280         0.123862     -0.157521     -0.374170
Pb       3.88126      7.79117      4.39367        -0.093834      0.151671     -0.808226
Pb       3.89788      7.78906     17.61196        -0.107827     -0.202771     -0.732524
Pb      15.58373      7.81922      4.38958         0.308050     -0.090364     -0.330440
Pb      15.59052      7.79412     17.60543        -0.115562     -0.016462     -0.704288
Pb       3.88845      7.80276      8.80493        -0.548258     -0.053218     -0.338308
Pb      15.57978      7.78353      8.80202         0.021218      0.292503     -0.234648
Pb       3.88741      7.78555     13.18963        -0.514404     -0.115187     -0.335100
Pb      15.59203      7.80345     13.20296        -0.018640     -0.421392     -0.685669
Pb       3.87942     11.67422      4.38659         0.503409     -0.360778     -0.707799
Pb       3.88799     11.66961     17.61021         0.358372      0.078022     -0.580479
Pb      15.56632     11.64843      4.36082        -0.245966     -0.033891     -0.289311
Pb      15.57826     11.66859     17.59616        -0.364096      0.051556     -0.469495
Pb       3.87033     11.65962      8.78440         0.103169      0.154672     -0.440611
Pb      15.57321     11.68967      8.80632         0.016110      0.054642     -0.771236
Pb       3.87847     11.69107     13.20077        -0.201631     -0.152517     -0.668114
Pb      15.56758     11.66703     13.20199         0.029844      0.107127     -0.489345
Pb       7.79495      3.84763      4.39953         0.124634     -0.095804     -0.374732
Pb       7.78425      3.87149     17.60825        -0.073777     -0.021619     -0.708294
Pb       7.77038     15.56525      4.37395        -0.118492     -0.117166     -0.663411
Pb       7.77859     15.57637     17.62301        -0.006472      0.118279     -0.489770
Pb       7.77260      3.88306      8.78659        -0.155351      0.047316     -0.274157
Pb       7.78907     15.58264      8.77436        -0.230750     -0.100398     -0.345081
Pb       7.82297      3.88956     13.18719        -0.079330      0.256462     -0.741904
Pb       7.78203     15.59337     13.21626         0.077416     -0.106845     -0.880186
Pb       7.80682      7.78155      4.38092        -0.049907      0.099082     -0.247031
Pb       7.78343      7.80545     17.61942         0.095771     -0.035798     -0.479295
Pb       7.77355      7.78996      8.78749         0.369304     -0.218850     -0.352815
Pb       7.78128      7.80927     13.17832        -0.148502     -0.525339     -0.560047
Pb       7.79500     11.68529      4.38870        -0.301001      0.005139     -0.519483
Pb       7.78291     11.68444     17.62805        -0.171133     -0.050163     -0.599478
Pb       7.79270     11.68242      8.82161        -0.163250      0.252279     -0.526018
Pb       7.78365     11.68982     13.20503        -0.104691      0.228876     -0.679434
Pb      11.67516      3.88193      4.39733        -0.061957     -0.236277     -0.706836
Pb      11.71499      3.87197     17.61319         0.006208      0.064462     -0.512322
Pb      11.65356     15.55507      4.39491         0.021442      0.351773     -0.896117
Pb      11.65275     15.56562     17.61696        -0.008553      0.094257     -0.514416
Pb      11.65677      3.88386      8.79196         0.046730     -0.101673     -0.542896
Pb      11.70047     15.59503      8.77916         0.054025      0.122456     -0.394329
Pb      11.69868      3.88329     13.20698         0.030869      0.245424     -0.479474
Pb      11.68271     15.58219     13.19824         0.052663     -0.256509     -0.464894
Pb      11.69703      7.77479      4.36158        -0.249651     -0.389240     -0.256435
Pb      11.69451      7.77211     17.60018        -0.090001     -0.055190     -0.652496
Pb      11.66433      7.78288      8.77416         0.005017     -0.012589     -0.123772
Pb      11.69057      7.77436     13.21019         0.421234     -0.280072     -0.674770
Pb      11.68622     11.67576      4.35586        -0.138990      0.174565     -0.304745
Pb      11.70569     11.65861     17.58343         0.031215     -0.028283     -0.372986
Pb      11.68947     11.66294      8.75818        -0.113124      0.112546     -0.222670
Pb      11.67007     11.66636     13.17085         0.082197      0.102620     -0.388325
Ti       1.93717      1.94115      2.34355        -0.139959     -0.207827     -1.150590
Ti       1.91717      1.96527     15.58558        -0.487145     -0.394396     -1.064856
Ti       1.92550     13.64658      2.33724         0.057355     -0.049084     -0.981811
Ti       1.93098     13.63531     15.57189        -0.255113      0.229176     -0.685362
Ti      13.67443      1.91999      2.31670        -1.417610      0.382459     -0.307404
Ti      13.59382      1.90630     15.59532         0.409721      0.282164     -0.283942
Ti      13.63289     13.59395      2.35334        -0.189399      0.344186     -1.551934
Ti      13.61333     13.60532     15.60084         0.268549      0.607426     -1.670464
Ti       1.87915      1.91015      6.72970         0.731959      0.279962      0.660067
Ti       1.97155     13.62928      6.76151        -0.479928      0.038865      0.019629
Ti      13.65771      1.90977      6.71343        -0.841919      0.469335     -0.116517
Ti      13.61555     13.64539      6.72697         0.354566     -0.353324     -0.836069
Ti       1.94496      1.92318     11.14639        -0.231120     -0.135789     -0.626108
Ti       1.91915     13.64320     11.14370        -0.189046      0.068313     -1.202814
Ti      13.61572      1.88166     11.16042         0.147824      0.922520     -0.264184
Ti      13.62086     13.63244     11.14954         0.149857     -0.009234     -0.153954
Ti       1.90567      5.86237      2.28798        -0.039560      0.024525     -0.619523
Ti       1.91482      5.80934     15.60020        -0.122343      0.804498     -1.698872
Ti      13.59720      5.84223      2.30535        -0.015786     -1.082976     -0.612838
Ti      13.60126      5.84415     15.57646         0.000162     -0.443656     -1.579849
Ti       1.93231      5.85638      6.73733        -0.645840      0.307093     -0.412528
Ti      13.63266      5.82874      6.77977        -0.264627     -0.002667     -0.775785
Ti       1.97621      5.77796     11.13954        -1.034656      0.658972      0.274680
Ti      13.62476      5.82034     11.15980         0.645959      0.268959      0.304240
Ti       1.91720      9.76892      2.32893         0.216201     -0.784033      0.086281
Ti       1.90787      9.74390     15.57630         0.058190     -0.563999     -0.977657
Ti      13.58240      9.69281      2.39880         0.735124      0.361354     -1.912162
Ti      13.60977      9.73177     15.56837         0.341310     -0.246220     -1.103201
Ti       1.96569      9.75393      6.73451        -0.821154     -0.600587      0.378506
Ti      13.59343      9.70975      6.75773         0.953164      0.239401     -0.806105
Ti       1.92266      9.73037     11.13381        -0.141895     -0.751298     -0.713195
Ti      13.62193      9.75380     11.16016        -0.022057     -0.912851     -0.502328
Ti       5.82356      1.95621      2.33988         0.194340     -0.743232     -0.077574
Ti       5.79877      1.93378     15.52642         0.463046      0.018811     -0.215407
Ti       5.80305     13.63374      2.34018         0.568409     -0.318116     -0.691436
Ti       5.85568     13.65087     15.53807        -0.127778     -0.113043      2.188785
Ti       5.80684      1.91890      6.74186         0.344954     -0.339226      0.067646
Ti       5.81738     13.62372      6.74763         0.594488     -0.044520     -0.268495
Ti       5.84634      1.89386     11.13634         0.079820      0.947196     -0.482209
Ti       5.77817     13.64511     11.13479         0.753511     -0.248213     -0.433324
Ti       5.85817      5.82121      2.34324        -0.706242     -0.086134     -1.484406
Ti       5.83903      5.85432     15.59271        -0.509293     -0.607573     -0.736839
Ti       5.76413      5.85210      6.73753         0.926453     -0.632750     -0.052794
Ti       5.79006      5.89160     11.16372         1.089893     -1.458044     -1.258021
Ti       5.85390      9.69267      2.31670        -0.285471      0.677809     -0.023680
Ti       5.79838      9.70238     15.55441         0.106631      0.598279     -0.183394
Ti       5.84840      9.69435      6.77777         0.131287      1.333511     -1.804631
Ti       5.82729      9.70681     11.15638        -0.234386      0.566815      0.260342
Ti       9.71687      1.93732      2.35148         0.649808     -0.062628     -0.312292
Ti       9.72001      1.93278     15.53378        -0.301748      0.032705      0.435672
Ti       9.74685     13.62040      2.30570        -0.342089      0.221521     -0.190409
Ti       9.71739     13.63995     15.57528         0.299942     -0.183946     -0.798523
Ti       9.71747      1.89739      6.76724         0.240489      0.947622     -0.892363
Ti       9.71727     13.63684      6.76266        -0.174993     -0.264351     -0.923878
Ti       9.74204      1.91888     11.15602        -0.154013      0.004704     -0.126409
Ti       9.72800     13.61588     11.13968        -0.512678      0.012009     -0.850409
Ti       9.69245      5.85394      2.32761         0.655827     -0.707114     -0.637341
Ti       9.67126      5.83327     15.57554         0.962261     -0.622269     -1.677682
Ti       9.69630      5.85015      6.74571         0.227743     -0.198895     -0.669021
Ti       9.73707      5.83490     11.13902        -0.653346     -0.322663     -0.096518
Ti       9.73348      9.73641      2.34652        -0.750994     -0.152333     -0.776528
Ti       9.68663      9.71462     15.54838         0.241917      0.395949      1.135625
Ti       9.74771      9.76097      6.73464        -0.552584     -0.295925     -0.280283
Ti       9.70682      9.70581     11.18382         0.449584      0.257905     -1.256000
O       1.90739      1.87413      0.52656         0.313050      0.381306      1.164907
O       1.84369      1.98359     13.75683         0.405266     -0.074402      0.920068
O       1.89310     13.63769      0.53240         0.088163     -0.025605      0.869710
O       1.98007     13.63722     13.76894         0.056201     -0.120478      0.806971
O      13.64162      2.00007      0.52061        -0.071425     -0.165951      0.282147
O      13.57615      1.90797     13.81201         0.222987     -0.104813     -0.124867
O      13.61965     13.53022      0.48706         0.161554      0.197124      1.407205
O      13.65150     13.65828     13.74103        -0.176089     -0.167276      1.106678
O       1.93683      1.96002      4.94619        -0.336072     -0.262080      0.246832
O       1.92319     13.63589      4.96227         0.024249      0.029568      0.477446
O      13.62094      1.93183      4.91541         0.492506     -0.094365      0.574955
O      13.61399     13.63950      4.87645         0.172927      0.156261      1.048989
O       1.89488      1.97040      9.35262         0.368558     -0.302267      0.094445
O       1.91889     13.68529      9.29540        -0.010879     -0.253422      1.045827
O      13.58684      1.94907      9.40548        -0.010840     -0.188459      0.019601
O      13.69504     13.67394      9.35932        -0.364479     -0.223503      0.510963
O       1.89561      5.83253      0.44850         0.184151      0.089676      1.263787
O       1.92273      5.81710     13.75979         0.091638     -0.256459      1.171534
O      13.65814      5.79041      0.50139        -0.298048      0.147655      0.568699
O      13.61248      5.86591     13.71342        -0.303113     -0.007061      1.306216
O       1.93478      5.95344      4.92654         0.009935     -0.467270      0.833038
O      13.64765      5.86368      4.95951         0.080581     -0.162873      1.241408
O       1.91922      5.81583      9.36247         0.205426      0.060352      0.200882
O      13.64398      5.89345      9.37447        -0.061933     -0.216532      0.195418
O       1.92780      9.69298      0.56492        -0.062035      0.225034     -0.132058
O       1.91700      9.74789     13.79317         0.103490      0.100687      0.118432
O      13.67179      9.78280      0.53988        -0.299592     -0.285678      1.503673
O      13.61880      9.71550     13.72265        -0.044314      0.167915      1.340104
O       1.87646      9.64378      4.95237         0.247662      0.444821      0.195343
O      13.60006      9.74660      4.90514        -0.098425     -0.135478      0.746878
O       1.95970      9.61933      9.30285         0.026370      0.425548      1.102458
O      13.63109      9.64173      9.34545        -0.036906      0.559287      0.771377
O       5.83548      1.93084      0.55937        -0.112901      0.143406      0.320272
O       5.80961      1.95044     13.73574        -0.129520     -0.063917      0.381516
O       5.90009     13.58213      0.53060        -0.258375      0.142099      0.907746
O       5.88408     13.65631     13.84356        -0.301527     -0.046779     -1.717102
O       5.86178      1.85859      4.95243        -0.268825      0.181078      0.430342
O       5.87257     13.66477      4.93262        -0.234771     -0.171311      0.667378
O       5.85441      1.99692      9.33231        -0.069911     -0.476227      0.977927
O       5.85815     13.63267      9.36264        -0.183922      0.006171      0.144205
O       5.82226      5.78873      0.45087         0.145397      0.013113      2.001136
O       5.80967      5.83946     13.77096         0.152770      0.090734      0.987252
O       5.79381      5.78528      4.95056        -0.205246      0.062812      0.969240
O       5.89053      5.80724      9.32264        -0.496566      0.540291      0.674564
O       5.84352      9.79418      0.51016         0.055104     -0.380854      0.736100
O       5.88853      9.68974     13.75933        -0.216458      0.036706      0.665949
O       5.86262      9.78708      4.94907        -0.293972     -0.124649      1.076779
O       5.89934      9.76773      9.38829        -0.455349     -0.289482     -0.082660
O       9.71488      1.85076      0.56178        -0.026436      0.425117      0.334325
O       9.73732      1.95645     13.77282         0.078360     -0.321072     -0.033780
O       9.75809     13.63421      0.50786        -0.108785      0.038238      0.628815
O       9.76015     13.59875     13.76295        -0.169791      0.138846      0.810961
O       9.79550      2.03887      4.96433        -0.381916     -0.436433      0.865931
O       9.78091     13.64569      4.92357        -0.065033     -0.088671      1.097997
O       9.72583      1.90161      9.38832         0.053283     -0.073099     -0.346335
O       9.73555     13.54546      9.30419         0.010941      0.239242      1.151603
O       9.71204      5.76249      0.50304        -0.177325      0.266231      1.097852
O       9.68685      5.75598     13.66977        -0.106789      0.514600      1.641298
O       9.71378      5.85681      4.92175         0.071714     -0.086690      1.215768
O       9.65796      5.86464      9.34192         0.236652      0.027898      0.655408
O       9.75829      9.71313      0.54663        -0.211008     -0.049673      0.649283
O       9.71520      9.78564     13.80028        -0.036953     -0.368439     -0.306587
O       9.75600      9.74965      4.93366         0.056644      0.096750      0.923293
O       9.73128      9.66358      9.37884        -0.133681      0.310660      0.625920
O       3.90795      1.89601      2.76969        -0.450111      0.203985      0.083371
O       3.86560      1.99983     15.92691        -0.182058     -0.129741      0.256765
O       3.85987     13.65913      2.65874         0.107987     -0.182804      0.391193
O       3.90084     13.69853     16.00697        -0.452760     -0.500726      0.008739
O      15.52335      1.86136      2.63006         1.489397      0.352383      0.747762
O       0.04482      1.86546     16.01997        -0.808110      0.502633      0.098732
O      15.56470     13.55232      2.69673         0.597665      0.426305      0.398532
O      15.56936     13.64620     15.88443         0.435620     -0.309415      0.503886
O       3.89495      1.83565      7.14705        -0.670123      0.477745     -0.108707
O       3.90583     13.69307      7.12023        -0.680249     -0.156660      0.043021
O      15.54050      1.92870      7.19987         0.645564      0.067944     -0.477889
O      15.50741     13.63499      7.15624         0.647297      0.009082     -0.143299
O       3.88097      1.92364     11.56064         0.520423     -0.107759      0.227157
O       3.83730     13.62323     11.49532         0.412263      0.004383      0.539934
O       0.06900      1.88753     11.46411        -1.482946      0.089470      0.638342
O       0.02770     13.61804     11.54009        -0.744954     -0.083128      0.207592
O       3.92366      5.77581      2.68370        -0.562152      0.258214      0.193716
O       3.89228      5.88944     15.93624        -0.306146     -0.488060      0.347894
O       0.02317      5.75949      2.60221         0.054011      0.307789      0.521625
O      15.46552      5.78332     15.88857         1.378147      0.346496      0.557024
O       3.83253      5.83295      7.19066         0.746614     -0.057835     -0.228262
O      15.58587      5.86764      7.13359        -0.310849     -0.186672      0.038499
O       3.88007      5.90464     11.49979        -0.211400     -0.462428      0.216089
O      15.56242      5.87726     11.54494         0.429214     -0.608684      0.064626
O       3.90590      9.68327      2.72122        -0.189154      0.143107      0.219485
O       3.90536      9.76477     15.92853        -0.044331     -0.359830      0.341805
O      15.51588      9.67167      2.71295         0.360758      0.426618      0.303246
O      15.57506      9.71159     15.92661        -0.173483      0.145705      0.447403
O       3.86402      9.79899      7.10374         0.182149     -0.337162      0.339650
O       0.00239      9.72081      7.12972        -0.199434      0.267198      0.100326
O       3.87021      9.66641     11.54374         0.234974      0.584803      0.095682
O      15.57580      9.72258     11.52198         0.243076      0.418396      0.124971
O       7.77455      1.92031      2.73302         0.113009      0.287975      0.275836
O       7.78391      1.90323     15.89031        -0.167722      0.076051      0.318353
O       7.84307     13.61376      2.73260        -0.203008     -0.067143      0.027296
O       7.79259     13.72382     15.93205        -0.300835     -0.448319      0.223595
O       7.76109      1.97303      7.07207         0.512922     -0.364450      0.326831
O       7.79655     13.58149      7.14586        -0.273236      0.283819      0.033605
O       7.79420      1.89750     11.54879        -0.484326     -0.042721      0.255396
O       7.74999     13.67857     11.56212         0.619611     -0.421637      0.213555
O       7.72367      5.87887      2.73022         0.408850     -0.582199      0.011903
O       7.80446      5.88739     15.95728        -0.581597     -0.102957      0.178600
O       7.80578      5.88574      7.05918        -0.750049     -0.107239      0.244333
O       7.72930      5.89555     11.46241         0.821496     -0.017237      0.616025
O       7.76847      9.70265      2.77726         0.087368      0.066498     -0.118044
O       7.80998      9.73775     15.97293        -0.191341     -0.471095      0.040805
O       7.74231      9.72653      7.08687         0.593231      0.200666      0.368096
O       7.71090      9.76526     11.53029         0.824660     -0.187933      0.392554
O      11.66808      1.93614      2.72840        -0.018679      0.025873      0.175258
O      11.70943      1.89057     15.96153        -0.845546      0.215924      0.245195
O      11.73448     13.63335      2.64310        -0.564266     -0.106835      0.477715
O      11.69234     13.67972     15.88290        -0.420591     -0.238537      0.506909
O      11.68906      1.96122      7.06466        -0.274701     -0.524241      0.559942
O      11.68285     13.60767      7.06678         0.091512      0.238165      0.473873
O      11.66401      1.96008     11.49902         0.186378     -0.590755      0.451065
O      11.66266     13.60229     11.49556         0.176109      0.349951      0.189060
O      11.68561      5.82207      2.66628        -0.096607      0.389298      0.172597
O      11.62784      5.81787     15.90501         0.318830     -0.046589      0.475636
O      11.68799      5.84347      7.13817         0.026785      0.154879      0.102544
O      11.66946      5.81180     11.50279        -0.292840      0.356639      0.145577
O      11.55903      9.69522      2.69560         1.903276     -0.165468      0.445881
O      11.75426      9.77918     15.97379        -0.925228     -0.403246      0.052947
O      11.70428      9.64929      7.16954        -0.739755      0.932120     -0.103700
O      11.69308      9.74431     11.52646        -0.234490     -0.265509      0.314703
O       1.94185      3.86525      2.73470         0.018751      0.030328      0.122193
O       1.85478      3.92778     15.88742         0.360873     -0.535118      0.622129
O       2.02867      0.02483      2.68108        -0.765742     -0.709813      0.500989
O       1.86197      0.00347     15.89960         0.681421     -0.513637      0.348723
O      13.60498      3.91145      2.72518         0.369628     -0.218216      0.313704
O      13.64529      3.87464     15.91604        -0.264486     -0.306502      0.417680
O      13.61553      0.01584      2.67425         0.211780     -1.002211      0.308619
O      13.62579     15.58564     15.91028         0.144725     -0.240927      0.640244
O       1.87614      3.85996      7.09832         0.244817      0.112703     -0.033719
O       1.88788     15.58276      7.16698        -0.025631     -0.010790     -0.264932
O      13.58738      3.84360      7.23642         0.411474      0.740131     -0.412348
O      13.65372      0.03920      7.19355        -0.364635     -0.737333     -0.274617
O       1.90927      3.81910     11.41540         0.378415      1.289653      0.726987
O       1.92080     15.55690     11.54188         0.331394     -0.156233      0.313972
O      13.57762      3.85431     11.58747         0.449909      0.162257      0.016763
O      13.65305     15.58804     11.48170        -0.245439     -0.355844      0.530075
O       1.89475      7.84539      2.72701         0.231376     -1.205515     -0.017271
O       1.93982      7.77822     15.88093        -0.190680     -0.049332      0.759793
O      13.61740      7.73383      2.71796        -0.098014      0.671440      0.121627
O      13.64426      7.75185     15.96396        -0.340496      0.715383      0.264987
O       1.93478      7.78528      7.13915         0.322580     -0.160811      0.102894
O      13.58921      7.85758      7.14481         0.337144     -1.177274     -0.068816
O       1.96624      7.76359     11.56492        -0.233562      0.280810      0.029030
O      13.74003      7.80622     11.56428        -0.954103     -0.079586      0.127864
O       2.01556     11.65344      2.66923        -0.453550      0.521034      0.450950
O       1.93394     11.62435     15.84109         0.057474      1.221292      0.817818
O      13.64477     11.63774      2.71043        -0.350060      0.079876      0.422780
O      13.61822     11.69007     15.94959         0.245757     -0.297011      0.117080
O       1.96263     11.70534      7.14600        -0.150985      0.136610      0.020832
O      13.64216     11.69646      7.06638        -0.261564     -0.077139      0.426990
O       1.90919     11.65823     11.46824         0.292882     -0.095301      0.322740
O      13.57043     11.71294     11.49795         0.458893     -0.224600      0.185209
O       5.82015      3.81143      2.76020         0.145843      0.977989      0.073663
O       5.81856      3.87027     15.95116         0.168333      0.201291      0.207532
O       5.87968     15.53222      2.70379        -0.159604      0.223459      0.271045
O       5.76833      0.01656     15.92575         0.136747     -0.064774      0.219573
O       5.85928      3.84542      7.19675        -0.482871      0.858334     -0.424607
O       5.84040     15.56295      7.18674         0.259584      0.062336      0.056798
O       5.85850      3.92725     11.45739        -0.349722     -0.513535      0.594998
O       5.83305     15.55342     11.50749        -0.252119      0.645291      0.386802
O       5.84265      7.76848      2.75854        -0.113594     -0.262290     -0.223024
O       5.81923      7.74445     16.02745         0.218203      0.813846     -0.038767
O       5.81723      7.83567      7.05644        -0.369439     -1.255232      0.420611
O       5.81247      7.77406     11.58464         0.104218      0.720308     -0.034541
O       5.82605     11.67112      2.68740        -0.057855      0.067639      0.435680
O       5.83505     11.63826     15.92212         0.113718      0.519733      0.141288
O       5.79084     11.71459      7.15023        -0.017966     -0.094293      0.247882
O       5.85170     11.75748     11.53226        -0.395293     -1.015035      0.483678
O       9.80608      3.93360      2.77232        -0.798947     -0.290980     -0.001623
O       9.66554      3.90158     15.87392         0.151139     -0.623775      0.512680
O       9.71678      0.01856      2.71081         0.244970     -0.720015      0.295615
O       9.69561     15.57211     15.96871         0.374955      0.172623      0.042157
O       9.74751      3.88306      7.20820        -0.130008      0.210644     -0.141192
O       9.67523     15.54897      7.14521         0.313545      0.461449      0.045363
O       9.72936      3.83019     11.53217        -0.254353      0.807852      0.038713
O       9.69925     15.53781     11.48776         0.350765      0.086098      0.428989
O       9.68903      7.71500      2.77108         0.080119      0.620068     -0.043227
O       9.78752      7.73154     16.02381        -0.227008      1.017989     -0.254491
O       9.70415      7.84614      7.12963         0.116030     -0.368734      0.031218
O       9.72131      7.80787     11.49786        -0.034191     -0.331390      0.556040
O       9.75155     11.65247      2.71008        -0.016845      0.430409      0.082968
O       9.69719     11.66526     15.95511         0.165594      0.110954      0.133838
O       9.66135     11.71107      7.18294         0.688010     -0.891910     -0.120372
O       9.79050     11.63597     11.53004        -0.576176      0.404883      0.312867
