  # total energy = -7877.83487325 
CRSYTAL
PRIMVEC
    15.2000000000000000    0.0000000000000000    0.0000000000000000
     0.0000000000000000   15.2000000000000000    0.0000000000000000
     0.0000000000000000    0.0000000000000000    17.000000000000000
PRESSURE
8.30391 8.14536 4.72651 -0.242076 0.219889 -0.049
PRIMCOORD
320 1
Pb       3.68232      3.92789      4.39605         0.003051     -0.407808     -0.820695
Pb       3.69927      3.77041      0.04285         0.776284      0.001462      0.021660
Pb       3.73024      0.10203      4.24120         0.291261      0.099258     -0.241857
Pb       3.91420     15.19220      0.07694         0.097339      0.202421     -0.498976
Pb      15.14895      3.87429      4.28449         0.369890     -0.088490     -0.447774
Pb       0.00026      3.83850     16.82619         0.047572     -0.273056      0.460943
Pb      15.16253      0.07729      4.21055        -0.077822     -0.532543     -0.278375
Pb       0.17681      0.00214     16.86338        -0.653502     -0.230378      0.190084
Pb       3.71109      3.75287      8.47441         0.465269     -0.166853      0.158207
Pb       3.77787      0.00157      8.26549        -0.002347     -0.388325      0.951874
Pb      15.05753      3.72066      8.48813         0.185626      0.382750      0.314543
Pb      15.15161      0.03532      8.59273        -0.066862     -0.353328     -0.124611
Pb       3.86124      3.69985     12.69178         0.225903      0.451268      0.288193
Pb       4.00846     15.04380     12.68070        -0.923549      0.195766      0.490373
Pb       0.17189      3.59401     12.86417        -0.452159      0.545519     -0.739985
Pb       0.04769     14.96384     12.64572         0.081936     -0.071093      0.358482
Pb       3.63599      7.79825      4.37480         0.296935     -0.601622     -0.345844
Pb       3.80257      7.74988      0.15005         0.273871     -0.273957     -0.648961
Pb      15.16419      7.78733      4.27492         0.465126     -0.642348     -0.323218
Pb       0.13681      7.65822      0.03361        -0.307495      0.129927     -0.192381
Pb       3.70744      7.45791      8.53573        -0.255219      0.965565      0.200410
Pb      15.06984      7.64733      8.58310         0.725588     -0.435509     -0.074290
Pb       3.77566      7.49468     12.74326         0.040412      0.060535     -0.096377
Pb      15.15205      7.38114     12.79264         0.152881      0.447190     -0.156699
Pb       3.63936     11.64043      4.37337         0.228307     -0.674826     -0.426269
Pb       3.87632     11.46755     16.85479         0.065845     -0.617410      0.226123
Pb      14.97950     11.59245      4.39374         0.514090     -0.039935     -0.588210
Pb       0.03136     11.43265     16.80692         0.302161     -0.401358      0.591802
Pb       3.64900     11.40550      8.38148         0.919939     -0.269092     -0.074959
Pb      15.07771     11.31980      8.64757        -0.277108     -0.049879     -0.203031
Pb       3.78500     11.28048     12.64873        -0.200208     -0.303630      0.413006
Pb      15.15744     11.34193     12.59600         0.023992      0.165901      0.582325
Pb       7.76090      3.88620      4.15783        -0.908044     -0.377098     -0.100260
Pb       7.65869      3.85969      0.10353        -0.420333     -0.361898      0.093407
Pb       7.60606      0.05890      4.11569        -0.441273     -0.137558      0.205654
Pb       7.57229     15.16075      0.05030        -0.245597      0.130939      0.118738
Pb       7.69014      3.78619      8.27906        -0.918682     -0.266717      0.976213
Pb       7.52409     15.17772      8.45612         0.547114      0.291686      0.403011
Pb       7.50819      3.70437     12.64441         0.075304     -0.049011      0.313354
Pb       7.53086     15.19359     12.72807         0.386190      0.277101      0.109377
Pb       7.58223      7.67636      4.27311         0.152705     -0.359628      0.156227
Pb       7.60181      7.49744      0.08694        -0.315703      0.259612      0.132171
Pb       7.59448      7.56420      8.43433         0.065354      0.147315     -0.297947
Pb       7.56422      7.42255     12.64564        -0.318177      1.077851      0.943917
Pb       7.59093     11.48051      4.17525         0.015865     -0.276178      0.090948
Pb       7.50672     11.39415      0.13552         0.012191      0.134522     -0.847732
Pb       7.51824     11.34791      8.35069        -0.232302     -0.084452      0.170465
Pb       7.54224     11.39860     12.71862        -0.184618     -0.764418      0.629656
Pb      11.50639      3.84119      4.05355        -0.141489     -0.117700      0.064037
Pb      11.49045      3.83170     16.91749        -0.554886     -0.396991      0.295484
Pb      11.47361      0.07189      4.12488         0.053958     -0.699340      0.427651
Pb      11.35354      0.00246     16.92637         0.300018     -0.041197      0.058457
Pb      11.38789      3.65800      8.39477         0.088541      0.185348      0.045350
Pb      11.22788     15.07450      8.78836         0.217527      0.215623     -0.592824
Pb      11.41416      3.73415     12.69009        -0.332814      0.168243      0.565945
Pb      11.25201      0.05082     12.90506        -0.165364     -0.750632     -0.054652
Pb      11.45976      7.59821      4.12915         0.153078      0.185282      0.507478
Pb      11.45576      7.67651     16.97858         0.314014     -0.640736     -0.366292
Pb      11.39635      7.62387      8.50296        -0.150508     -0.182964     -0.368070
Pb      11.31791      7.47374     12.75811        -0.251274      0.358244     -0.234760
Pb      11.42759     11.60965      4.16977        -0.017884     -0.626796      0.144707
Pb      11.42839     11.18278     16.97561        -0.030660      0.590973     -0.537289
Pb      11.12406     11.42411      8.58915         0.610682     -0.469059      0.221818
Pb      11.24633     11.06860     12.94629         0.295494      0.820696     -0.409607
Ti       1.84518      1.84848      2.18858         0.661334      1.312797      0.814663
Ti       1.99496      1.83532     14.88480         0.746317      0.341113      0.559125
Ti       1.94640     13.25438      2.09126        -0.925348     -0.068048      0.979699
Ti       1.94407     13.25812     14.92667         0.664967      0.127835     -0.215183
Ti      13.34073      1.84289      2.04154        -0.470330      0.439810      0.108212
Ti      13.35686      1.76076     14.94149        -0.899622      0.119464      1.487482
Ti      13.34482     13.27012      2.08067         0.010606      0.616485     -0.919624
Ti      13.33430     13.17646     14.98347        -0.440017      0.704129     -0.974542
Ti       1.82360      1.89879      6.51980         1.353815     -0.195568      0.014896
Ti       1.78183     13.28146      6.50194         0.399317      0.164116      1.682132
Ti      13.30932      1.79044      6.43397        -0.792976      0.158362      0.625760
Ti      13.21275     13.23650      6.78871         0.630749      0.221176     -1.014370
Ti       1.99646      1.76243     10.79501        -0.963151      0.180946     -0.332165
Ti       1.93696     13.17742     10.61976        -0.601672      0.232093      0.338163
Ti      13.31122      1.79639     10.96715         0.802338      0.558658     -0.477338
Ti      13.18925     13.23886     10.83829        -0.173232     -1.165361     -0.534422
Ti       1.87008      5.66914      2.19462         0.023879     -0.286451      2.693507
Ti       1.88714      5.71127     14.99803         1.142456      0.299002     -0.828649
Ti      13.43166      5.73892      2.14430        -1.547570     -0.139518      0.058683
Ti      13.23102      5.64995     14.93177         0.705836      1.069655      0.218084
Ti       1.81467      5.72058      6.56912        -0.688897      0.354625     -0.025693
Ti      13.24734      5.65736      6.43563        -0.003136      0.325330      0.064851
Ti       1.76375      5.60702     10.77024         0.297948      0.870343     -0.240733
Ti      13.15002      5.57432     10.78173         0.899532      0.292903      0.869497
Ti       1.95005      9.51314      2.22974        -0.746565      0.566450     -0.392029
Ti       1.93861      9.46922     14.86042         0.528753     -0.112930     -0.072012
Ti      13.40652      9.53671      2.15922        -0.174989      0.029032      0.372379
Ti      13.43003      9.44856     14.87951        -1.153213     -0.131014      0.425280
Ti       1.87983      9.48491      6.56434        -0.083334     -0.428723     -0.262763
Ti      13.31187      9.41171      6.52268        -0.615282      0.208165      0.969127
Ti       1.89347      9.39208     10.75582         0.183595     -0.770066     -0.539029
Ti      13.28435      9.35883     10.84302        -0.553258      0.729272      0.025944
Ti       5.62690      1.95627      2.26293         0.166030     -0.642116      0.943357
Ti       5.70163      1.88385     15.01695        -0.020947      0.308603      0.848089
Ti       5.65833     13.31192      2.32571        -0.363394      0.164695     -0.207207
Ti       5.72939     13.28367     14.93409         1.021954      0.243647      1.469885
Ti       5.70712      1.90276      6.44524        -0.665393      0.218325      0.233548
Ti       5.74205     13.35881      6.38473        -1.208933     -0.664246      0.182289
Ti       5.69749      1.84193     10.61411         1.702307      0.424306     -0.515326
Ti       5.63677     13.22157     10.68863         0.741791     -0.482352      0.124068
Ti       5.63077      5.72649      2.43036         0.109034     -0.643849      0.388734
Ti       5.64666      5.67272     15.16099        -0.799493      0.014511     -0.539661
Ti       5.60521      5.69438      6.50592         0.955957     -0.478203     -1.235092
Ti       5.56981      5.68473     10.65133         0.923733     -0.775112      0.447232
Ti       5.75931      9.48425      2.32773        -1.145783      1.093661      0.174134
Ti       5.71418      9.42193     14.94095        -0.137061     -0.055393      0.548338
Ti       5.71388      9.46309      6.38377         0.124740      0.947289     -0.104522
Ti       5.66780      9.44441     10.61838        -0.675093     -0.372200      0.226476
Ti       9.54044      1.86381      2.28710        -1.075364      0.395141     -0.954787
Ti       9.41136      1.84894     15.03565         0.275908     -0.070487     -0.499767
Ti       9.53395     13.31839      2.11645        -0.246045      0.334396      0.449470
Ti       9.52940     13.22840     15.07491        -0.735013     -0.196849      0.446429
Ti       9.50243      1.85331      6.38461         0.566269     -0.183491      0.263209
Ti       9.48098     13.27163      6.49547         0.091780      0.181861     -1.359170
Ti       9.54811      1.87507     10.75487        -2.132298     -0.154415      0.244083
Ti       9.41473     13.26388     10.95352         0.233734     -0.471493     -0.376023
Ti       9.53086      5.78024      2.29663        -0.296511     -0.621870      0.009696
Ti       9.44014      5.65401     14.95062        -0.124263     -0.331970      1.521399
Ti       9.45161      5.66227      6.38748         0.776941      1.239906     -0.771674
Ti       9.34032      5.61661     10.64748         1.254697      0.955191      0.157328
Ti       9.59049      9.51509      2.21930         0.011239      0.198273      0.570969
Ti       9.44198      9.40062     15.05515         0.395701      0.226852     -0.256399
Ti       9.49799      9.46055      6.31235         0.448223      0.073816      0.213629
Ti       9.37550      9.44563     10.72430         0.894601     -0.212518      0.821267
O       1.98412      2.01701      0.44110        -0.722147     -0.454164     -0.725688
O       2.09277      1.79397     13.12493        -0.171007     -0.044148     -0.610143
O       1.97365     13.37774      0.30034        -0.197311     -0.693020      0.310120
O       1.93899     13.19028     13.17447         0.052355      0.380959     -0.675709
O      13.32951      1.83268      0.26947         0.309447     -0.086950      0.061736
O      13.21886      1.61631     13.18706         0.021821      0.868991     -0.289797
O      13.46431     13.30959      0.28838        -0.004427     -0.315727      0.522099
O      13.43387     13.06513     13.16114        -0.521573      0.862313     -0.071702
O       1.77793      1.95935      4.76256         0.040254     -0.297811     -0.432497
O       1.72370     13.25665      4.78769        -0.039327      0.109309     -1.958241
O      13.32460      1.83829      4.68022         0.097186     -0.124944     -0.165670
O      13.22398     13.27373      4.94873        -0.000970     -0.353393     -0.021900
O       1.83623      1.71827      9.01775         0.257699      0.484045      0.159524
O       2.05470     13.19014      8.83130        -0.596087      0.049860      0.437319
O      13.31607      1.85840      9.20664        -0.050907      0.344407     -1.421181
O      13.27628     13.23727      8.97486        -0.279286      0.034206      0.275983
O       1.83800      5.61120      0.50240        -0.208553     -0.132467     -2.794591
O       1.94623      5.83465     13.18052        -0.274705     -0.655314      0.309126
O      13.30469      5.76718      0.37112         0.328321     -0.246637     -0.384387
O      13.30613      5.66584     13.13858        -0.498742     -0.229251      1.233894
O       1.83749      5.74123      4.80633         0.335938     -0.180463     -0.816606
O      13.27779      5.69257      4.65636        -0.229337      0.039712     -0.213957
O       1.78908      5.68067      8.97737        -0.000235     -0.181467     -0.015127
O      13.27507      5.49464      9.04335        -0.134234      0.131556     -1.404668
O       1.82002      9.61118      0.43896         0.517307     -0.240295      0.139320
O       1.96367      9.43460     13.06911         0.052508     -0.154221      0.200990
O      13.40812      9.43268      0.41102        -0.238245      0.564542     -1.612782
O      13.33306      9.45282     13.12571        -0.107442      0.025374     -1.191064
O       1.92799      9.40425      4.75328        -0.482648     -0.094813     -0.702323
O      13.45935      9.44984      4.79667        -0.427830      0.138893     -1.409381
O       1.80357      9.45175      8.94746         0.198846      0.057315     -0.476196
O      13.23246      9.47735      9.05763         0.020280     -0.742734     -0.578995
O       5.72790      1.96575      0.51718        -0.341793     -0.417810     -1.102943
O       5.64748      1.92289     13.24487         0.123994     -0.234563     -0.679550
O       5.67732     13.22616      0.52794        -0.367731      0.057979     -0.591035
O       5.81891     13.31296     13.20727        -0.547487     -0.080818     -1.726471
O       5.59251      1.81306      4.69365         0.102713      0.112006     -0.092713
O       5.72485     13.47357      4.62453         0.035217     -0.324905      0.139563
O       5.68800      1.84626      8.85139         0.020355      0.139322      0.229678
O       5.61683     13.17515      8.94152         0.382153      0.161365     -0.148309
O       5.70761      5.76239      0.69331        -0.111888     -0.191448     -1.511865
O       5.61692      5.69979     13.39139         0.224376     -0.112366     -0.883268
O       5.74572      5.57327      4.67086        -0.453684      0.509698      0.957977
O       5.63844      5.58240      8.91188         0.200407      0.337327     -0.997021
O       5.65163      9.64406      0.55012        -0.149737     -0.173411     -0.501404
O       5.63381      9.22976     13.20109         0.131192      0.605391     -0.097587
O       5.85239      9.49222      4.55725        -0.604685     -0.093723      1.209950
O       5.70062      9.46120      8.86916         0.328594      0.187767     -1.004200
O       9.38741      1.66391      0.52222         0.468625      0.608112     -0.469861
O       9.41205      1.74932     13.20239         0.400801      0.445353      0.264749
O       9.38304     13.36081      0.36336         0.692016      0.004302      0.300756
O       9.50505     13.25978     13.29072        -0.260740     -0.165469     -0.507212
O       9.62968      1.96585      4.63596        -0.375683     -0.314672     -0.554915
O       9.58636     13.12598      4.69403        -0.195183      0.609659      0.837586
O       9.57054      1.83778      8.98879         0.166072      0.036130     -0.596718
O       9.37906     13.31793      9.15923         0.356874     -0.316025     -1.111144
O       9.48496      5.77388      0.53858         0.209015      0.064943     -0.972300
O       9.30797      5.58357     13.23653         0.369734      0.076425     -0.978162
O       9.60483      5.68519      4.56357        -0.562625     -0.514621      0.992972
O       9.39476      5.78156      8.89003         0.028564     -0.342002     -0.785027
O       9.68011      9.36701      0.42844        -0.342833      0.246629      0.134188
O       9.55360      9.45263     13.26889        -0.830986     -0.111584     -0.212826
O       9.40612      9.66274      4.56567         0.431477     -0.184331     -0.790629
O       9.46174      9.39269      8.95883        -0.046965      0.179615     -0.409601
O       3.70392      1.93506      2.63112         0.101384     -0.438930      0.120535
O       3.84204      1.91060     15.46693        -0.680052      0.046467     -0.253149
O       3.73911     13.40623      2.64387        -0.844517     -0.348951      0.061646
O       3.90132     13.26044     15.20950        -1.248221     -0.045984      0.505499
O      15.13117      1.87466      2.50140         1.183121     -0.163256      0.272320
O       0.08772      1.94537     15.13769        -0.842550     -0.436477      0.258615
O      15.12990     13.21769      2.55637         1.687005      0.384732      0.221189
O       0.05209     13.27989     15.15039         0.100829      0.381696      0.840144
O       3.75511      1.84659      6.87476         0.071726      0.060372     -0.234994
O       3.79988     13.22540      6.61299         0.111212      0.483824      0.490101
O       0.02900      1.85974      6.87926        -1.416031      0.164002      0.433528
O      15.14704     13.29618      6.91825        -0.235663     -0.687408      0.471548
O       3.90305      1.85954     11.08034        -1.794629      0.086382     -0.046217
O       3.76199     13.07552     11.11431         0.670932      0.762574     -0.081835
O      15.17563      1.82355     11.25248         1.198139     -0.546557      0.105557
O       0.00939     13.19349     11.05782         0.418081      0.324033     -0.301929
O       3.71211      5.73802      2.66807         0.761250      0.002106      0.221486
O       3.74250      5.56528     15.50552         0.545093      0.471593      0.031098
O      15.15499      5.59507      2.68735         1.031439      0.275239     -0.275702
O       0.01716      5.84403     15.29207        -0.533436     -0.631035      0.072661
O       3.75139      5.78323      6.88152         0.761934     -0.409493     -0.175807
O      15.13356      5.67483      6.67437        -0.178636     -0.308853      0.850781
O       3.78254      5.46877     11.01846        -0.359896     -0.037767      0.176629
O      15.10548      5.75370     11.18451         0.915839     -0.360470     -0.507874
O       3.79190      9.38759      2.63567        -0.303409     -0.044420     -0.046267
O       3.76992      9.49177     15.35076         1.137810      0.814760      0.091877
O      15.19512      9.56308      2.46594         1.438620      0.077993      1.106762
O       0.07523      9.35779     15.19744         0.109157      0.394422      0.427767
O       3.78989      9.39451      6.72596         0.794658      0.137696      0.135224
O       0.02177      9.35344      6.81647        -1.221907      0.387177      0.605356
O       3.77113      9.38695     10.93849         0.200023      0.637840      0.510672
O       0.00798      9.10272     10.97463        -0.953141      0.722412      0.408427
O       7.53534      1.81846      2.60331         1.099386      0.327477      0.354435
O       7.56332      1.73103     15.40529         0.702774      0.380993     -0.089626
O       7.52289     13.33526      2.54753         1.657877     -0.222895      0.077588
O       7.59169     13.33812     15.51942         0.428347      0.041638     -0.668709
O       7.55443      1.84791      6.78743         1.391441      0.483015     -0.124052
O       7.62874     13.35163      6.85001        -0.188112     -0.493691      0.007681
O       7.61620      1.71151     11.05200        -0.430942      0.476259      0.130060
O       7.53349     13.15226     11.27457        -0.985203      0.813494     -0.780120
O       7.64448      5.62959      2.57306        -0.394167      0.165758      0.509928
O       7.53558      5.79121     15.51430         1.074703     -0.387606     -0.217658
O       7.55558      5.55943      6.78911        -0.040558      0.348544     -0.020735
O       7.55616      5.78924     11.14510        -1.285554     -1.179990     -0.706690
O       7.64493      9.61891      2.43222         0.459035      0.344185      0.251808
O       7.61403      9.23625     15.37886        -0.747072      0.615069      0.027305
O       7.62979      9.59212      6.63639        -1.513033     -0.083630      0.856765
O       7.52621      9.36191     11.06450         0.274770      0.073905      0.120745
O      11.42581      1.79466      2.56834         0.673189      0.438622     -0.411109
O      11.36420      1.92569     15.45142         0.733696     -0.354777     -0.699369
O      11.45090     13.34189      2.47002        -0.413149      0.162031      0.159091
O      11.48127     13.11401     15.44574        -0.844774      0.431473     -0.345691
O      11.43331      1.88664      6.80438        -0.044536     -0.041802      0.212916
O      11.29403     13.30222      7.05528         0.317072     -0.092930      0.141398
O      11.37078      1.79431     11.16455         0.131964      0.445120      0.345090
O      11.31566     13.17675     11.12371         1.003320      0.219920     -0.062522
O      11.40385      5.79537      2.62709         1.281485     -0.295989     -0.499466
O      11.38949      5.62024     15.29456        -0.142998     -0.156906     -0.170902
O      11.29333      5.86385      6.75310         0.447571     -0.871593      0.429206
O      11.29816      5.43919     11.12778        -0.485695      0.564215     -0.031634
O      11.54193      9.48512      2.53203        -1.883533     -0.207132      0.221502
O      11.38366      9.57580     15.16758         0.798843      0.060341      0.924922
O      11.36019      9.22819      6.73182         0.102003      0.636936      0.262257
O      11.28857      9.48852     11.21861         0.552816     -0.301059     -0.414101
O       1.92233      3.77303      2.67176        -0.614061      0.110195      0.032205
O       1.95744      3.80005     15.07852        -0.633584     -0.498872      0.627191
O       1.88163     15.14791      2.45898        -0.627233      0.385379      0.309342
O       1.97475     15.18597     15.37221         0.104418      0.226867     -0.399442
O      13.38876      3.75639      2.35195        -1.062873      0.192086      0.468158
O      13.30160      3.78127     15.42121         0.382256     -0.071087     -1.016718
O      13.35398     15.17596      2.60124        -0.131730     -0.145591     -0.162607
O      13.27470     15.12459     15.32330         0.208994      0.635619     -0.363666
O       1.99370      3.83039      6.93348        -0.719642     -0.905362     -0.295053
O       1.89159     15.14401      6.84310        -0.275786      0.823535     -0.050146
O      13.34248      3.76492      6.76946        -0.537824     -0.468100      0.457730
O      13.38416     15.15734      6.91591        -0.514007      0.535952      0.181589
O       1.78180      3.70062     11.04250         0.274823     -0.291412      0.523305
O       1.92028     15.05136     11.06142         0.244843      0.518997      0.026666
O      13.39848      3.77562     11.28673        -0.557035     -1.385344      0.203171
O      13.27598     15.08810     11.04395         0.023437      0.146684      0.573049
O       1.73405      7.55020      2.43658         0.215636      0.994361      0.477471
O       2.10751      7.61556     15.40156        -0.745202     -0.329426      0.008893
O      13.44833      7.63623      2.40092        -0.320157     -0.824086      0.874618
O      13.23129      7.66398     15.26460        -0.162516     -1.724983      0.050101
O       1.82350      7.58138      6.95628         0.357916     -0.243081      0.116057
O      13.26825      7.49416      6.93866         0.379761      0.530872      0.210679
O       2.07083      7.48365     11.05397        -0.411715     -0.363117     -0.054320
O      13.09207      7.45983     11.18485        -0.060080      0.611160     -0.441644
O       1.94524     11.41403      2.64093         0.078652      0.200540     -0.274035
O       1.94659     11.39913     15.18263        -0.264509     -0.724933      0.581742
O      13.31197     11.43090      2.55152        -0.344912      0.092206      0.269734
O      13.39192     11.33416     15.22291         0.315881     -0.486185      0.794296
O       1.85715     11.34332      6.75657        -0.022340      0.261231      0.469744
O      13.24757     11.25942      6.99518        -0.087762      0.773551     -0.142064
O       1.85001     11.28881     11.01026        -0.079525      0.324658      0.052415
O      13.38662     11.31681     10.99342         0.100198     -0.639383      0.292269
O       5.70027      3.74354      2.60169        -0.167175      1.677246      0.576937
O       5.78549      3.77286     15.40417         0.087436      0.124416      0.309381
O       5.56412      0.01605      2.64704         0.248172      0.103079     -0.165958
O       5.66334      0.00201     15.28377        -0.239288     -0.361156      0.456627
O       5.61350      3.75859      6.84997        -0.145552      0.606937     -0.073937
O       5.76772      0.01772      6.94406        -0.634762     -0.890931     -0.688342
O       5.83449      3.68972     11.06792        -0.471607      0.906080     -0.030634
O       5.64117     15.13298     10.99991         0.112926     -0.770357      0.145089
O       5.77693      7.64192      2.65116         0.008150     -0.469816      0.007935
O       5.54833      7.59897     15.51746         0.228388     -0.139152      0.197421
O       5.77798      7.60372      6.83470        -0.044443     -0.398426     -0.398452
O       5.54590      7.53295     10.93870         0.364927     -0.563663      0.308146
O       5.48405     11.48650      2.73962         0.742819     -0.989361     -0.114846
O       5.87085     11.40278     15.21362        -0.427747     -1.343095      0.515471
O       5.68434     11.45227      6.74897         0.349920     -0.804661     -0.130821
O       5.59896     11.26341     11.06449         0.704172      1.147024      0.307820
O       9.55410      3.75871      2.47114         0.099777      0.446519      0.391755
O       9.46482      3.69023     15.34503        -0.366929      1.492171      0.376484
O       9.49737     15.18055      2.61202         0.112491     -0.720661      0.368683
O       9.61565     15.14941     15.27532         0.176211     -0.226187      0.320085
O       9.51033      3.76768      6.76837         0.185346     -0.008160      0.195749
O       9.48728      0.03915      6.80374         0.091150     -1.029237      0.159695
O       9.35809      3.79655     10.96945         0.026671     -1.673388      0.466213
O       9.42223     15.14082     11.11164         0.657457      0.422897      0.427921
O       9.42561      7.65502      2.74543         0.477911      0.532795     -0.656328
O       9.60899      7.50145     15.30714         0.008205      0.205917      0.164998
O       9.24626      7.62021      6.57177         0.011743     -1.219686      0.511746
O       9.45968      7.49510     11.07140         0.548976      0.690018      0.317518
O       9.64212     11.48630      2.49891        -0.498503     -1.076884     -0.274688
O       9.42182     11.36619     15.50587        -0.053986     -0.696145     -0.265394
O       9.48860     11.31173      6.84125         0.381080      1.466198      0.465170
O       9.36591     11.36445     11.22694         0.272220     -1.327663     -0.373494
