  # total energy = -7879.88698808 
CRSYTAL
PRIMVEC
    15.6000000000000000    0.0000000000000000    0.0000000000000000
     0.0000000000000000   15.6000000000000000    0.0000000000000000
     0.0000000000000000    0.0000000000000000    17.640000000000000
PRESSURE
-6.42111 -6.19333 -8.67237 -0.178229 -0.043095 0.029082
PRIMCOORD
320 1
Pb       3.76716      3.78709      4.43310         0.513739     -0.176290     -0.513565
Pb       3.94210      3.95081     17.60664        -0.087363      0.416352     -0.017923
Pb       3.82297     15.47245      4.35716        -0.011928     -0.135180     -0.603950
Pb       3.77008     15.57424     17.61116        -0.145960     -0.036606     -0.278566
Pb       0.02307      3.89259      4.36509        -0.564602     -0.424980     -0.035506
Pb       0.00628      4.00839      0.00827         0.237022     -0.386613     -0.089332
Pb      15.54874     15.51674      4.32057        -0.088665      0.342432     -0.274373
Pb      15.44647      0.00828     17.59556        -0.415880     -0.112293     -0.217929
Pb       3.80452      3.99928      8.82638         0.089871     -0.111684     -0.340815
Pb       3.86397      0.03410      8.74789        -0.607061     -0.306629     -0.377919
Pb      15.54351      3.97141      8.81063         0.177116      0.140796     -0.626882
Pb      15.56834     15.58282      8.71594         0.372261      0.038809     -0.175011
Pb       3.94647      3.62166     13.26625        -0.305868      0.436471     -0.328936
Pb       3.81124     15.49507     13.14784        -0.187869      0.511935     -0.207958
Pb       0.01708      3.81794     13.20089         0.223886      0.132452     -0.740572
Pb      15.55445      0.08047     13.16087        -0.022925      0.033424     -0.473574
Pb       3.89592      7.77827      4.44043         0.415361      0.101527      0.139075
Pb       3.96889      7.80344     17.63162         0.152647     -0.486619     -0.524450
Pb       0.08965      7.92400      4.40684        -0.460221     -0.205026     -0.166373
Pb       0.08690      7.83471     17.51726        -0.148918     -0.051574     -0.463370
Pb       3.91427      7.89648      8.85677         0.157748     -0.253279     -0.580771
Pb      15.51716      7.81389      8.91673        -0.199618     -0.354735     -0.715647
Pb       3.92888      7.73711     13.15906         0.130337      0.053457     -0.383271
Pb       0.11868      7.84690     13.20370        -0.339607      0.162831     -0.373899
Pb       3.91793     11.65604      4.38177         0.109780      0.142042     -0.199495
Pb       3.91066     11.66660     17.62511        -0.094687      0.255497     -0.763352
Pb      15.54321     11.61779      4.31599        -0.106505     -0.032699     -0.353627
Pb      15.56070     11.67687     17.48399        -0.217767      0.106087     -0.343229
Pb       3.84038     11.65253      8.83163        -0.428622      0.301232     -0.525644
Pb      15.49379     11.83364      8.78477         0.276815     -0.173368     -0.072181
Pb       3.82141     11.83406     13.16135         0.057350     -0.352247     -0.457957
Pb      15.46692     11.70272     13.17930        -0.259043     -0.051498     -0.354259
Pb       7.83901      3.63308      4.56307        -0.141607      0.223960     -0.673033
Pb       7.74427      3.86177     17.60455         0.455311      0.316469     -0.047601
Pb       7.63919     15.43083      4.41229         0.250233      0.213882     -0.607632
Pb       7.70302      0.01850     17.61072         0.207132     -0.177907     -0.051858
Pb       7.57705      3.94700      8.79239         0.341713     -0.046017     -0.346737
Pb       7.79604     15.59071      8.77581         0.219476      0.021787     -0.425035
Pb       8.02523      3.99775     13.15173         0.097920     -0.299028      0.310471
Pb       7.81224      0.07622     13.21410         0.207151      0.045249     -0.375180
Pb       7.94899      7.70129      4.40913         0.047380      0.219686     -0.273072
Pb       7.80896      7.88112      0.05819        -0.091247     -0.140564     -0.382083
Pb       7.70721      7.84384      8.75644        -0.238198     -0.139265     -0.390008
Pb       7.72545      7.92003     13.13627         0.282776     -0.325803      0.015662
Pb       7.85422     11.69510      4.43168        -0.093030     -0.609095     -0.105357
Pb       7.77057     11.71317      0.01102        -0.178158     -0.239510     -0.393522
Pb       7.84819     11.75477      8.92238        -0.227626     -0.076970     -0.901144
Pb       7.78246     11.81998     13.19045        -0.406834      0.149684     -0.234486
Pb      11.70774      3.85333      4.43804         0.001414      0.220335     -0.205982
Pb      11.79430      3.81791      0.03905        -0.111813      0.014043     -0.449005
Pb      11.52602     15.36999      4.45185        -0.026767      0.259704     -0.425265
Pb      11.43431     15.45872      0.01895         0.856061      0.239141     -0.138201
Pb      11.54414      3.94294      8.83177         0.128547     -0.268805     -0.921035
Pb      11.84615      0.05712      8.72699        -0.444653     -0.144127     -0.119935
Pb      11.82913      3.94672     13.19564        -0.373820     -0.211933     -0.392816
Pb      11.68119     15.54265     13.16819         0.018360      0.315353     -0.596562
Pb      11.75854      7.62950      4.29118        -0.203080      0.674070     -0.132019
Pb      11.64734      7.68272     17.51294         0.112809      0.221040      0.223146
Pb      11.55370      7.81531      8.73008         0.523043      0.161368     -0.162980
Pb      11.73957      7.70385     13.22892        -0.270239      0.016220     -0.587472
Pb      11.67883     11.60767      4.22942        -0.013694     -0.772930      0.458593
Pb      11.79794     11.56179     17.47593        -0.019815      0.166385      0.054631
Pb      11.76046     11.63314      8.65830        -0.166875      0.170401      0.338770
Pb      11.57949     11.64365     13.05675         0.994056      0.092491      0.190568
Ti       1.85413      1.90830      2.30856        -0.051707     -0.639144     -0.592228
Ti       1.93479      1.96253     15.64545        -0.281201     -0.304902     -0.654042
Ti       1.80543     13.53143      2.27725         0.803027      0.260719     -0.425066
Ti       1.84763     13.61936     15.52484         0.044941      0.124142      0.035862
Ti      13.48847      1.89917      2.54960         1.076628     -0.188497     -2.007497
Ti      13.70654      2.01102     15.49569        -0.316796     -1.492270     -1.095877
Ti      13.50234     13.63886      2.33729         0.543143     -0.282403     -1.396576
Ti      13.53394     13.66452     15.45979         0.291411     -0.185172     -0.520472
Ti       1.90015      2.00259      6.80383        -0.003000     -0.888102     -0.000650
Ti       1.86025     13.59983      6.66828         0.832450     -0.117342      0.582224
Ti      13.62617      1.94396      6.69027         0.071543      0.919591     -0.692181
Ti      13.61883     13.65076      6.66709        -0.480261     -0.669017     -1.131354
Ti       1.97675      1.95338     11.12455        -0.268981      0.011252     -0.088421
Ti       1.84751     13.63510     11.19155        -0.063329      0.717573     -1.864838
Ti      13.64568      2.01056     11.10653        -0.478267     -0.961150     -0.842003
Ti      13.59443     13.64334     11.14447         0.076222      0.283487      0.433336
Ti       1.94665      5.88257      2.50937         1.054831     -0.577438     -1.448461
Ti       2.06101      5.84229     15.48372         0.271272     -0.629728     -0.300847
Ti      13.77001      5.85295      2.40780        -0.961716     -0.373995     -0.430187
Ti      13.77284      5.79123     15.54736        -0.851066      0.590032     -1.321915
Ti       1.95259      5.88330      6.77203        -0.330580      0.186698     -0.079832
Ti      13.62326      5.89691      6.68507        -0.246625     -0.128150      0.376324
Ti       1.93310      5.84532     11.24668         0.152687     -1.245834     -0.888452
Ti      13.66001      5.85812     11.11990         0.240721     -0.143145     -0.388443
Ti       1.96623      9.70868      2.29504         0.228125      0.247032     -0.929937
Ti       2.02181      9.70491     15.52506        -0.256190      0.565634     -1.107984
Ti      13.68066      9.73725      2.17694        -1.169333      0.286569     -0.710182
Ti      13.60717      9.66559     15.50306         0.767631      0.746870     -0.665218
Ti       1.79016      9.70523      6.88050         0.745819      0.399167     -0.615590
Ti      13.63576      9.76943      6.78122        -0.919978     -0.773414     -0.422292
Ti       1.93478      9.76889     11.21356         0.131081      0.428965     -1.185396
Ti      13.59710      9.67126     11.16496        -0.174678      0.698263     -1.111121
Ti       5.80675      1.92530      2.36341        -0.090767      0.323910     -0.180084
Ti       5.85891      1.92665     15.74813        -0.125107     -0.261871     -2.209234
Ti       5.81127     13.53441      2.34351        -0.796635      0.116449     -0.863064
Ti       5.80661     13.60287     15.58270         0.166357     -0.349084     -0.067235
Ti       5.80708      1.88805      6.77575        -0.296879      1.016384     -0.979147
Ti       5.81148     13.69177      6.81698        -0.403778     -0.874948     -1.167931
Ti       5.90474      1.91715     11.17540        -0.634163      0.361900     -1.905134
Ti       5.83970     13.72684     11.08374        -0.224291     -1.253195     -1.281068
Ti       5.86436      5.83273      2.52354         0.483640     -0.443811     -1.896013
Ti       5.96411      5.83192     15.44061         0.068027      0.232721      0.364679
Ti       5.84198      5.82353      6.77342         0.020854      0.544529      0.250520
Ti       5.88053      5.70346     11.37784        -0.969146      0.721788     -1.775189
Ti       5.85030      9.68469      2.38895         0.485535      0.190353     -0.302871
Ti       5.93049      9.69165     15.45021        -0.635394      0.170896     -0.026214
Ti       5.79230      9.90449      6.86534         0.538625     -1.162763     -1.589477
Ti       5.86773      9.77536     11.17312        -0.729625     -0.075954     -0.223772
Ti       9.70089      1.87741      2.40754        -0.761277     -0.369422     -0.247354
Ti       9.84081      1.91671     15.65661        -0.330864      0.658828     -1.221731
Ti       9.66869     13.51529      2.26257         0.257848      0.478064      0.543138
Ti       9.70087     13.57352     15.54281         0.001853      0.226836     -0.422852
Ti       9.68573      1.86927      6.77325         0.484051      0.113272     -1.050776
Ti       9.69647     13.55401      6.79382        -0.005024      0.407427     -0.680763
Ti       9.76326      1.98798     11.10955         0.608315     -0.245040     -1.058036
Ti       9.70296     13.65697     11.11736         0.442073      1.199830     -1.349173
Ti       9.75904      5.70453      2.29118         0.124176      0.930606      0.404274
Ti       9.82328      5.81607     15.62678        -0.432273     -0.404801     -1.155847
Ti       9.74506      5.79566      6.72509        -0.222831     -0.043450      0.313905
Ti       9.77555      5.93970     11.10363         0.153626     -0.019137     -0.622555
Ti       9.72240      9.69420      2.32912         0.673042     -0.402548     -0.985633
Ti       9.75306      9.71757     15.54188        -0.182472     -0.149522     -0.295308
Ti       9.74735      9.71820      6.82243        -0.330826      0.006427     -2.225071
Ti       9.69607      9.82238     11.10707         1.269057     -1.513420     -1.788826
O       1.87100      1.81903      0.50841         0.007682      0.289365      0.888591
O       1.91564      1.76680     13.83833         0.341305      0.519584      0.967561
O       1.88848     13.47438      0.48566         0.136753      0.146044      0.768930
O       1.89091     13.76704     13.71212         0.067151     -0.476796      1.153818
O      13.57047      1.87518      0.69233        -0.007859      0.293379      1.360219
O      13.65839      1.96405     13.64831         0.158612      0.346023      1.586471
O      13.49115     13.71000      0.50472        -0.183213     -0.106593      1.138712
O      13.54669     13.54062     13.63174         0.049069      0.592557      1.359868
O       1.92835      1.79075      5.05113         0.001964      0.761523     -0.156619
O       1.94769     13.44276      4.88880        -0.382033      0.549914      0.669291
O      13.72593      1.88251      4.86070        -0.457571     -0.143088      0.972393
O      13.62855     13.58229      4.84722         0.103545     -0.106110      1.089409
O       1.96205      1.96832      9.34900        -0.033458      0.090134     -0.005625
O       1.81168     13.72710      9.34821         0.075914     -0.357804      1.218289
O      13.56978      1.88035      9.22809         0.157575      0.293336      1.577713
O      13.68147     13.75636      9.36341        -0.027845     -0.230049      0.348662
O       2.16048      5.80067      0.71223        -0.521586      0.351645      0.812615
O       2.02697      5.83672     13.67689        -0.469081      0.360984      1.306159
O      13.83040      5.69345      0.62212        -0.120018      0.199349      0.297735
O      13.66991      5.82981     13.70013         0.045089     -0.155589      1.508661
O       1.99570      6.01273      4.97449        -0.443155     -0.538613      0.295323
O      13.55388      5.83528      4.92417         0.461714      0.330524     -0.176684
O       1.88349      5.78400      9.42443         0.258507     -0.027691      0.868466
O      13.65725      5.89204      9.32558        -0.155427     -0.308888      0.663342
O       2.02359      9.69942      0.47405        -0.114843     -0.182959      0.924621
O       1.95322      9.61990     13.68153         0.170558      0.179199      1.048215
O      13.59274      9.80491      0.31836         0.541510     -0.478873      1.345665
O      13.60503      9.77274     13.70517         0.026049     -0.376073      0.527899
O       1.62550      9.64557      5.07323         0.496349      0.252874      0.502039
O      13.55356      9.75988      5.01355         0.693484      0.211571     -0.127948
O       2.05615      9.74207      9.38100        -0.472418      0.007351      1.288715
O      13.45905      9.67580      9.35342         0.850742      0.150224      1.059588
O       5.76739      1.97279      0.54903         0.511826     -0.380299      0.262848
O       5.74431      1.87095     13.89140         0.448011      0.059336      1.419663
O       5.81025     13.47367      0.50006        -0.095275      0.019380      1.166188
O       5.96228     13.57843     13.78224        -0.229708      0.157731      0.864015
O       5.72761      1.82910      4.93979         0.347824      0.022947      1.074635
O       5.73271     13.56242      4.91200         0.318871      0.435627      1.695239
O       5.86182      2.05612      9.30356        -0.050045     -0.385994      2.256418
O       5.84012     13.63053      9.24824        -0.062833      0.537281      1.514258
O       5.78603      5.91984      0.64595        -0.056065     -0.031273      1.799927
O       5.99412      5.82265     13.65589        -0.185850     -0.019428      0.173154
O       5.95034      5.87135      5.04606        -0.116345      0.031081     -0.705802
O       5.86970      5.78261      9.54316        -0.174283     -0.340401      0.900654
O       5.98991      9.64417      0.57873        -0.651978     -0.250994      0.602510
O       6.00748      9.67527     13.64310         0.086636      0.550491      0.723048
O       5.87357      9.88119      5.05747        -0.377989     -0.038287      1.034711
O       5.82285      9.72060      9.37892        -0.040751      0.277941      0.617135
O       9.60316      1.79324      0.60576         0.514107      0.256147      0.599281
O       9.81563      2.05770     13.82477        -0.228916     -0.337766      1.478782
O       9.74367     13.57239      0.48419        -0.039336     -0.009212      0.489146
O       9.68445     13.63715     13.72384        -0.313553     -0.166569      0.861929
O       9.76412      1.89473      4.91685        -0.553101      0.003535      1.244080
O       9.52367     13.50225      4.99405         0.629475      0.365365      0.474608
O       9.75345      2.00758      9.28133         0.080231     -0.224796      1.291176
O       9.65187     13.67775      9.29071        -0.068462     -0.134088      1.169032
O       9.82457      5.75073      0.52202        -0.086055      0.382624      0.168015
O       9.88796      5.75692     13.77431        -0.104564     -0.075497      1.115694
O       9.68783      5.82695      4.95673        -0.029613      0.084699      0.277754
O       9.79917      5.92913      9.29349         0.203109     -0.513195      1.118345
O       9.73948      9.67996      0.48141        -0.105578     -0.219735      0.976902
O       9.68375      9.72105     13.75776         0.149934      0.073218      0.179161
O       9.79290      9.80858      4.94188        -0.372629     -0.188708      1.478740
O       9.70913      9.71112      9.26443         0.050841      0.377222      1.430648
O       3.91141      1.99025      2.64675        -0.856463     -0.260184      0.493792
O       3.86917      1.85323     16.01758         0.220151      0.258704      0.253049
O       3.83791     13.48757      2.70924         0.050664      0.304312     -0.053273
O       3.81164     13.48769     15.89397         0.788427      0.891831     -0.031893
O      15.51586      1.70913      2.78155         0.835647      0.615087     -0.086619
O       0.01251      2.05320     15.84261        -0.189293     -0.345529      0.508078
O      15.51737     13.56204      2.51057         0.332457      0.250726      0.733803
O      15.45236     13.49571     15.96665         1.261586      0.465686     -0.427678
O       3.87253      2.06746      7.13628        -0.281456     -0.651942      0.278602
O       3.82130     13.74913      7.13817         0.185913     -0.104472     -0.083145
O      15.53126      2.00697      7.19030        -0.057801     -0.143184     -0.160445
O      15.51010     13.55296      7.08295         0.696166      0.209577      0.036502
O       3.86702      1.94804     11.56316         0.875449     -0.465825      0.219799
O       3.84019     13.61624     11.57813         0.987058     -0.062216      0.031051
O       0.08788      2.02712     11.55694        -0.981580     -0.428339     -0.029132
O      15.58831     13.62772     11.55516        -0.868587      0.267865      0.181405
O       3.93148      5.77511      2.98277        -0.350389      0.071038     -0.078525
O       3.92970      5.76794     15.89516         0.152466      0.341391     -0.098020
O       0.06840      5.77044      2.83419        -0.614946      0.330857      0.008650
O       0.02898      5.74664     16.00753         0.460562      0.486409     -0.139053
O       3.81197      5.75028      7.15246         0.707150      0.391668      0.106116
O      15.52157      5.90366      7.22257         0.051056     -0.170072     -0.236600
O       3.91471      5.79691     11.65466         0.140254      0.487123     -0.044149
O      15.59244      5.73217     11.47247        -0.022407      0.429295      0.456635
O       3.87609      9.56977      2.81352        -0.694892      0.718209     -0.456420
O       3.94782      9.67109     15.84042         0.090137     -0.084182      0.148185
O      15.57025      9.75618      2.65205         0.093543     -0.452900      0.078683
O       0.00310      9.74896     15.74869         0.430588     -0.332722      0.774062
O       3.85746      9.82185      7.22590        -0.092328     -0.194556      0.117755
O      15.52809      9.75719      7.26784         0.486082     -0.166717      0.252086
O       3.94489      9.86309     11.52577        -0.266965     -0.035288      0.226863
O      15.57711      9.82620     11.58179         0.436247     -0.468901     -0.074029
O       7.74260      1.84963      2.86498         0.329352     -0.079839     -0.073714
O       7.83427      1.91671     16.08551        -0.456880      0.015573     -0.151601
O       7.77213     13.50595      2.66749        -0.070749      0.135949      0.022143
O       7.75334     13.50772     16.08145         0.403787      0.568093     -0.607537
O       7.72312      2.02957      7.17776         0.291808     -0.723523     -0.341238
O       7.73758     13.68443      7.10211        -0.172225     -0.224452      0.411851
O       7.77846      1.90554     11.53475        -0.000595      0.003348      0.153048
O       7.79644     13.74502     11.41124         0.298176     -0.100357      0.551746
O       7.84351      5.94210      2.75134        -0.476791     -0.083460     -0.098890
O       7.85408      5.82128     15.89247        -0.162362      0.068816      0.093480
O       7.77516      5.90121      7.31224        -0.085870     -0.094974     -0.625450
O       7.84176      5.79043     11.53302         0.426568      0.320100      0.213184
O       7.82275      9.78886      2.63819        -0.482852     -0.642856      0.376182
O       7.78769      9.58405     15.98041         0.403519      0.341300     -0.224501
O       7.74364      9.71102      7.17737         0.289410      0.218220      0.307885
O       7.87855      9.66441     11.42456        -0.485418      0.428362      0.344005
O      11.56748      1.98071      2.80712         0.763023     -0.053863      0.035361
O      11.75161      1.89704     16.03717        -0.384498      0.381346     -0.090185
O      11.64963     13.53258      2.87465        -0.865907      0.220407     -0.732350
O      11.59187     13.63945     15.92468         0.538556      0.132168     -0.147851
O      11.61911      1.84711      7.13406         0.488242      0.158071     -0.091077
O      11.67341     13.60095      7.10030        -0.021488      0.120231     -0.184921
O      11.73345      2.02739     11.47059        -0.461100     -0.045277     -0.067989
O      11.64412     13.75982     11.51403         0.154103     -0.446262     -0.032535
O      11.75847      5.83303      2.74104        -0.368590     -0.589751     -0.106346
O      11.76672      5.80524     16.06610         0.472241     -0.244530     -0.274429
O      11.67373      5.88631      7.04973        -0.330773     -0.519820      0.396964
O      11.73094      5.78505     11.59945        -0.102436      0.022147     -0.301266
O      11.74514      9.84587      2.62432        -0.244165     -0.719737     -0.069759
O      11.74018      9.67381     15.89742        -0.569678     -0.013185     -0.032887
O      11.67969      9.81076      7.21826        -0.450211     -0.055729     -0.155419
O      11.76546      9.76769     11.50748        -1.182682      0.013429      0.567254
O       1.80467      3.83068      2.75213         0.542682     -0.481350      0.331386
O       1.98508      3.94044     16.07609         0.074658     -0.506666     -0.526386
O       1.96600     15.53678      2.72752        -0.001823     -0.289891     -0.098908
O       1.83508     15.54056     16.06612         0.286498     -0.381318     -0.246153
O      13.69660      3.85967      2.87333        -0.099866     -0.150960      0.008154
O      13.71393      3.85679     15.89989        -0.452785      0.500873      0.371622
O      13.45977     15.50339      2.77951         0.149043      0.313565      0.293601
O      13.75792      0.01978     15.84563        -0.223832     -0.277665     -0.164382
O       1.88346      3.96457      7.20021        -0.323648     -0.543842     -0.242032
O       1.82626     15.59406      7.10878         0.138567     -0.079998      0.198629
O      13.51268      3.85964      6.86915         0.197152      0.050824      0.704140
O      13.64754     15.50750      6.97468        -0.068843      0.797477      0.475921
O       2.00108      3.87901     11.68190        -0.057701     -0.215758     -0.210136
O       1.94836     15.56659     11.48290         0.053810      0.626357      0.498464
O      13.68502      3.88203     11.51173        -0.027876      0.205736     -0.059930
O      13.58849      0.08767     11.57219         0.505751     -0.370176     -0.077499
O       1.86849      7.77474      2.73401         0.078021      0.390769      0.238455
O       2.00334      7.74230     15.97723        -0.429835      0.031047     -0.040332
O      13.64072      7.76397      2.65414         0.314933      0.312266     -0.079528
O      13.74740      7.70995     15.85651        -0.135273      0.316523      0.249747
O       1.93430      7.78719      7.19740        -0.064081      0.292635      0.376835
O      13.54173      7.86922      7.09352         0.428322     -0.935115      0.170519
O       1.89609      7.77954     11.49607         0.201563      0.559627      0.385394
O      13.68979      7.78331     11.46409         0.090401     -0.404385      0.449978
O       1.89385     11.56317      2.75162         0.067966      0.379772     -0.174434
O       2.04398     11.64408     15.95437        -0.737717     -0.248503     -0.398392
O      13.59420     11.63412      2.53782         0.442205      0.187264      0.452719
O      13.60354     11.71887     15.82144        -0.388786     -0.426775      0.384684
O       1.93816     11.68735      7.19215        -0.310593      0.271277      0.032694
O      13.64760     11.66615      7.20443        -0.063623      0.801197      0.060597
O       1.89110     11.74386     11.54337         0.383761     -0.977069      0.395549
O      13.59864     11.75111     11.49968         0.115387     -0.061906      0.009640
O       5.94362      3.83821      2.78209        -0.282158      0.411556      0.137226
O       5.92262      3.93123     16.06566        -0.433416     -0.656353     -0.357277
O       5.84611     15.45748      2.70867        -0.243027      0.339881      0.018513
O       5.90023     15.56029     16.01353        -0.344915     -0.408973      0.089140
O       5.84073      3.87768      7.06109         0.101000      0.537711      0.416866
O       5.86099      0.02415      7.22008        -0.285158     -0.217018     -0.123783
O       5.77190      3.82053     11.71056         0.645586     -0.364666     -0.320282
O       5.83539     15.55401     11.48387        -0.129668      1.062096      0.309592
O       5.74543      7.80833      2.88635         0.695591     -0.418700     -0.098002
O       5.89095      7.71979     15.75488        -0.254936      0.320388      0.445141
O       5.74941      7.80734      7.22020        -0.068062     -0.291096      0.221960
O       5.83044      7.86253     11.61785         0.228669     -0.197948     -0.059362
O       5.72596     11.60369      2.79899         0.306581     -0.094268     -0.348119
O       5.88314     11.61556     15.93732        -0.048810     -0.075718     -0.141802
O       5.82391     11.79697      7.25438        -0.112155     -0.317881      0.021875
O       6.05270     11.82523     11.50010        -0.511246     -1.139487      0.198420
O       9.68560      3.88323      2.75071        -0.051461     -0.532538     -0.014686
O       9.75296      3.93176     16.14504         0.281538     -1.010234     -0.378269
O       9.76270     15.50171      2.72716        -0.087928     -0.331135      0.039480
O       9.75592     15.57272     15.93554        -0.480633     -0.117331      0.026886
O       9.62533      3.84081      6.98060         0.698846      0.736769      0.554630
O       9.62952     15.54173      7.07899         0.076973      0.381702      0.211063
O       9.72244      3.86640     11.47279         0.135746      0.308654      0.095337
O       9.78959      0.02588     11.63177        -0.414310      0.301520     -0.214648
O       9.81621      7.75775      2.74821        -0.220898      0.440615     -0.108789
O       9.88693      7.76354     15.86835        -0.252188     -0.150317      0.460944
O       9.81857      7.79841      7.05992        -0.566552     -0.019507      0.182282
O       9.93933      7.81432     11.42318        -0.544729     -0.239014      0.391622
O       9.69438     11.62937      2.72241         0.240278      0.544688     -0.175654
O       9.75376     11.62443     15.87345        -0.143766      0.239403      0.040580
O       9.69327     11.65084      7.13904        -0.253578      0.609409      0.511854
O       9.84752     11.70720     11.43275        -0.839037      0.200272      0.085045
