  # total energy = -7877.35332617 
CRSYTAL
PRIMVEC
    15.2000000000000000    0.0000000000000000    0.0000000000000000
     0.0000000000000000   15.2000000000000000    0.0000000000000000
     0.0000000000000000    0.0000000000000000    17.000000000000000
PRESSURE
7.65225 7.40228 1.59901 -0.171526 0.015406 -0.066054
PRIMCOORD
320 1
Pb       3.67451      3.94188      4.39714         0.227951     -0.246390     -0.244068
Pb       3.73416      3.82596      0.06464         0.384124      0.066796     -0.236826
Pb       3.71985      0.10704      4.31732         0.007814     -0.208218     -0.539857
Pb       3.97321     15.19263      0.07971        -0.682181     -0.445823     -0.310172
Pb      15.14912      3.99377      4.33257         0.061594     -0.622441     -0.787508
Pb      15.17919      3.81686     16.86613        -0.274725     -0.066546     -0.041839
Pb       0.01091      0.12506      4.21542         0.318484     -0.699355     -0.034307
Pb       0.16127     15.19099     16.87270        -0.384255     -0.307755     -0.013654
Pb       3.82195      3.68053      8.50326        -0.311597      0.170078     -0.288609
Pb       3.79250     15.15630      8.33074        -0.027165      0.184215      0.977231
Pb      15.08418      3.74368      8.45800        -0.140961     -0.336353      0.454935
Pb      15.17915     15.19526      8.65806         0.073465     -0.008628     -0.348470
Pb       3.83034      3.72839     12.71661        -0.066021     -0.189350      0.046240
Pb       3.95847     15.03083     12.71978        -0.960098      0.487585     -0.119534
Pb       0.18591      3.57942     12.84148        -0.998677      0.153434      0.208043
Pb       0.04481     14.99199     12.65287        -0.018507      0.245419      0.789793
Pb       3.66728      7.72743      4.37230         0.190177     -0.041529     -0.679801
Pb       3.83278      7.74104      0.20840        -0.158258     -0.290141      0.007583
Pb      15.14025      7.72795      4.22993         0.022432     -0.065366     -0.199614
Pb       0.14294      7.63889      0.00717         0.055755     -0.038881     -0.220326
Pb       3.72821      7.47036      8.50764         0.214150      0.528702     -0.106546
Pb      15.03358      7.60578      8.54709         0.087531      0.298920      0.231761
Pb       3.73113      7.51466     12.75778         0.385305     -0.166616     -0.608470
Pb      15.12890      7.40433     12.78339        -0.085931      0.032109     -0.452740
Pb       3.59838     11.67469      4.36005         0.269503     -0.862110     -0.728233
Pb       3.92053     11.45234     16.92438        -0.565964     -0.109163      0.522868
Pb      14.95361     11.60091      4.36830         0.334786     -0.425510      0.112788
Pb       0.03735     11.44761     16.85056         0.541340     -0.260926      0.011341
Pb       3.69634     11.43869      8.38825         0.311005     -0.443966      0.426872
Pb      15.05575     11.29028      8.65560         0.092997     -0.024907     -0.420406
Pb       3.71743     11.24625     12.73455         0.136232      0.123930     -0.374169
Pb      15.11804     11.32051     12.56570         1.372522      0.057147      1.255109
Pb       7.68903      3.84257      4.13113        -0.243788     -0.598590      0.666413
Pb       7.67487      3.87048      0.09246        -0.385485     -0.077816     -0.006626
Pb       7.56111      0.03516      4.16236         0.046417      0.125600      0.422425
Pb       7.56736     15.13128      0.08225         0.167159      0.199820     -0.375652
Pb       7.76229      3.79363      8.22625        -0.625089     -0.242285      0.703706
Pb       7.50782     15.15444      8.45780         0.160588      0.114870     -0.746165
Pb       7.47306      3.68715     12.64852         0.382713      0.711143      0.283059
Pb       7.55881      0.07433     12.70037         0.133585     -0.371805      0.313012
Pb       7.61286      7.62611      4.34709         0.196335     -0.304388     -0.404869
Pb       7.57204      7.52408      0.04076         0.072451      0.259611      0.237984
Pb       7.61275      7.58144      8.44790        -0.222544     -0.021493     -0.553175
Pb       7.59319      7.47602     12.70042        -0.569465      0.053125      0.177865
Pb       7.54644     11.38898      4.13831         0.590090      0.268886      0.465054
Pb       7.57021     11.41324      0.11019         0.277915     -0.236715     -0.287776
Pb       7.46927     11.40068      8.31362         0.515548     -0.115975      0.707219
Pb       7.51632     11.38141     12.70918         0.077676     -0.688895      0.143222
Pb      11.50437      3.87779      4.03479        -0.433607     -0.783989      0.797976
Pb      11.50378      3.85096     16.95954        -0.095718     -0.558403     -0.403509
Pb      11.47192      0.04902      4.19196        -0.154896     -0.349644     -0.475838
Pb      11.36300     15.14512     16.93277         0.257682     -0.034845      0.013780
Pb      11.38780      3.65388      8.39442         0.254783      0.093871      0.544290
Pb      11.20911     15.08938      8.74245         0.700440      0.350732     -0.748555
Pb      11.40878      3.72763     12.69229         0.008221      0.433087      0.810943
Pb      11.25408      0.07057     12.88775         1.508400     -0.256145      0.184571
Pb      11.50369      7.56183      4.11713        -0.030299      0.672874      0.248056
Pb      11.40969      7.63360     16.96514        -0.563838      0.170868      0.190452
Pb      11.40051      7.61505      8.43535         0.122226     -0.066385      0.057525
Pb      11.29463      7.48127     12.70285         0.132026     -0.274922     -0.178888
Pb      11.44404     11.55955      4.18012         0.103425     -0.482391      0.357024
Pb      11.45649     11.21782     16.96854        -0.455541      0.635284     -0.490131
Pb      11.17369     11.44900      8.62729         0.668998     -0.280828     -0.233382
Pb      11.26743     11.08187     12.93950        -0.007749      0.702314     -0.288056
Ti       1.85713      1.92253      2.16155         0.115619     -0.984863     -0.497721
Ti       1.97511      1.86005     14.98922        -0.164270     -0.922207     -0.790907
Ti       1.83832     13.30175      2.15972         0.195066      0.388389      0.036312
Ti       2.02228     13.28841     14.95213        -0.661506     -0.726343      0.581593
Ti      13.34051      1.78882      2.04705        -0.155532      1.138344     -0.173211
Ti      13.31888      1.78898     15.05284         0.018226      0.307047     -1.890764
Ti      13.35538     13.30649      2.02435         0.275362     -0.607326      0.733700
Ti      13.33337     13.21396     14.88710        -0.149643      0.284377      0.512885
Ti       1.86045      1.91073      6.48164        -0.575509     -0.280931     -0.285857
Ti       1.84648     13.27703      6.50346        -0.833813      0.533154      0.041903
Ti      13.28694      1.80741      6.34948         0.068974      0.128700      0.850948
Ti      13.31856     13.29370      6.79982        -0.566201     -0.522850     -0.446114
Ti       1.96198      1.77398     10.80286         0.164361     -0.302641     -0.852924
Ti       1.97536     13.19987     10.65022        -0.732274      0.182496     -0.467721
Ti      13.34110      1.82826     10.94529        -0.753684     -0.082565     -1.004478
Ti      13.23679     13.22358     10.84904         0.385776      0.361820     -0.630589
Ti       1.88533      5.63218      2.23300        -0.458571      1.263014     -1.371031
Ti       1.86633      5.67963     15.01717        -0.221984      0.354294     -0.263702
Ti      13.31322      5.72781      2.09327         1.397056     -0.433545      1.089206
Ti      13.16433      5.79258     14.98458         1.005103     -3.915828     -1.431408
Ti       1.74635      5.72353      6.63398         1.486233     -0.692308     -0.875510
Ti      13.24122      5.66992      6.39667        -0.907238      0.297779     -0.210467
Ti       1.82161      5.58978     10.72727        -0.263560      0.281809     -0.400519
Ti      13.21258      5.55412     10.72291        -0.092625      0.392100      0.473867
Ti       1.88891      9.53925      2.19107         0.653595      0.199845     -0.136434
Ti       1.96794      9.45924     14.86386        -1.053749      0.703450      0.964107
Ti      13.38965      9.53994      2.05205        -0.763778     -0.826666      0.626395
Ti      13.35690      9.38866     14.91655         0.487613      1.138595      0.156585
Ti       1.90508      9.44165      6.54183        -1.087687      1.041262      0.908929
Ti      13.28774      9.48038      6.52670         0.124510      0.491040     -0.956689
Ti       1.85447      9.35893     10.72757         0.145548      1.182188     -0.712352
Ti      13.21228      9.42450     10.85464         0.204587     -0.904391     -1.600380
Ti       5.58992      1.92560      2.21744         0.801129      0.319033      0.560838
Ti       5.68811      1.89533     15.04195         0.201318     -0.393475      0.077207
Ti       5.67380     13.33303      2.35761        -0.466580     -0.531733      0.085204
Ti       5.85537     13.28096     14.89544        -1.991298     -0.770479      0.762723
Ti       5.67625      1.95504      6.42515         1.253597     -1.489903     -0.728336
Ti       5.70743     13.27957      6.42987         0.384095      1.188951     -0.478337
Ti       5.72072      1.83262     10.59991        -1.240155     -0.175963     -0.323662
Ti       5.71132     13.21103     10.75281        -0.867499     -0.137102     -1.859685
Ti       5.67233      5.73554      2.40604         0.392027      0.102582     -1.042265
Ti       5.62796      5.68224     15.13885         1.035919     -0.187639     -1.067603
Ti       5.66612      5.73199      6.40511         0.202917     -0.264335      1.029858
Ti       5.63268      5.59909     10.59381        -0.098186      0.889477     -0.026206
Ti       5.72387      9.57037      2.38024        -0.841013     -0.693191     -0.023627
Ti       5.66156      9.41784     14.95959         0.079986      0.825913     -1.056504
Ti       5.72961      9.52736      6.37820        -0.639562     -0.939859     -0.156992
Ti       5.63755      9.40834     10.57400        -0.085569      0.375805      1.578108
Ti       9.45356      1.87810      2.20411         1.059918     -0.211186      0.685457
Ti       9.44743      1.83895     15.01742         0.508040      0.438788      1.192840
Ti       9.56555     13.31578      2.21190        -0.208668     -0.104777     -0.383680
Ti       9.52642     13.27016     15.01027         0.060299     -1.144501     -0.091598
Ti       9.60537      1.82442      6.30602        -1.402671      0.036729      0.489246
Ti       9.55553     13.25886      6.44625         0.181784      0.591299      0.446831
Ti       9.50180      1.89363     10.69198         0.845800     -0.172993     -0.152606
Ti       9.44699     13.28384     10.86772         0.971964     -0.198062     -0.299039
Ti       9.55357      5.72537      2.20443        -0.281477      0.341445      0.781309
Ti       9.45004      5.64931     14.95242         0.014170      0.106808     -0.955241
Ti       9.52026      5.68124      6.35775        -0.024555     -0.169453     -0.045624
Ti       9.36825      5.69502     10.63910         0.671313     -0.674102      0.324094
Ti       9.59919      9.55954      2.21667        -0.970363     -0.851575     -0.809112
Ti       9.39744      9.40390     15.03011         0.792050      0.848358      0.104777
Ti       9.52156      9.47111      6.33983        -0.635856      0.220590      0.569570
Ti       9.33553      9.47210     10.68014         0.539398     -0.325609      0.100804
O       1.90067      1.75668      0.33849         0.134634      0.923718      0.752708
O       2.06838      1.84145     13.14870        -0.285919      0.018102      0.842046
O       1.76024     13.30696      0.33876         0.421039     -0.089125      1.048803
O       1.97831     13.34355     13.19177         0.187437     -0.310169     -0.139068
O      13.45300      1.86843      0.21386        -0.639479     -0.179645      1.592942
O      13.30190      1.79982     13.16572        -0.095517      0.073967      0.893182
O      13.42881     13.26442      0.29321        -0.329303      0.034546      0.315555
O      13.21195     13.16491     13.11501         0.545263     -0.155231     -0.606168
O       1.76570      1.90398      4.66449         0.337803      0.184305      0.665653
O       1.82408     13.29432      4.67549         0.041688     -0.144781      1.107781
O      13.47506      1.84744      4.57087        -0.787079     -0.005937      0.425252
O      13.16677     13.10834      5.02011         0.201471      0.573112     -1.259916
O       1.87437      1.85567      8.98722        -0.099177      0.012087      0.090322
O       1.83949     13.39548      8.84427         0.703603     -0.570634      0.443234
O      13.11173      1.94888      9.13173         0.821770      0.046651      0.237453
O      13.27977     13.09337      9.01070         0.131899      0.534984      0.053402
O       1.84875      5.57510      0.35380         0.386083      0.262851      1.164869
O       1.83113      5.66877     13.18570         0.201010      0.190119      0.808163
O      13.22602      5.71899      0.33654         0.010507     -0.135968     -0.612434
O      13.13797      5.71812     13.16409         0.296122      0.307907      0.404547
O       1.86037      5.54901      4.78257        -0.356484      0.612672      0.493780
O      13.31542      5.74296      4.55099        -0.037072     -0.119012      1.514355
O       1.80872      5.65468      8.90930         0.335683     -0.228804      0.324724
O      13.19883      5.54359      8.94281         0.093934      0.172410      0.031715
O       1.86048      9.51555      0.37782         0.314552     -0.423123      1.130881
O       1.92821      9.38296     13.09355         0.207360     -0.053662     -0.219932
O      13.39311      9.29520      0.26210        -0.219385      0.583693      0.908006
O      13.33435      9.34346     13.06587        -0.401247      0.359611      1.021739
O       1.82748      9.39832      4.77441         0.034723      0.052507     -0.353263
O      13.37806      9.25987      4.68685        -0.343546      0.892270      0.681681
O       1.84376      9.47250      8.91865         0.171300     -0.137025      0.378833
O      13.25720      9.40950      8.94385        -0.239860     -0.042623      1.162497
O       5.55408      1.80437      0.40699         0.636074      0.312030      0.660602
O       5.56551      1.93715     13.23833         0.531159     -0.195164      0.178580
O       5.63145     13.24504      0.56832         0.414386     -0.199630      0.021715
O       5.77322     13.30542     13.11887        -0.004260     -0.184242     -0.519511
O       5.67077      1.79050      4.61228        -0.144345      0.207618      0.589362
O       5.72814     13.36584      4.62667        -0.352883      0.018300      0.552763
O       5.59442      1.81380      8.81785         0.538898      0.310010      0.552274
O       5.65050     13.25820      8.87215         0.379583     -0.116725      1.164335
O       5.67295      5.76360      0.52817         0.148850     -0.208210      0.960775
O       5.71123      5.73243     13.30606        -0.232583     -0.290334      0.963585
O       5.67110      5.71667      4.64340         0.101154     -0.352042     -0.459209
O       5.69328      5.62975      8.80674        -0.267503     -0.032469      0.476555
O       5.45402      9.53954      0.58002         0.714099     -0.036930     -0.249306
O       5.52381      9.44321     13.11320         0.663825     -0.347898      2.040856
O       5.75826      9.39900      4.56986         0.073337      0.438396      0.819635
O       5.72537      9.53081      8.82951        -0.164683     -0.140588     -0.464575
O       9.44073      1.71271      0.45114        -0.205807      0.599334     -0.744916
O       9.59242      1.74468     13.26373        -0.830441      0.505775     -0.038111
O       9.57077     13.25698      0.40693        -0.547053      0.034763      0.925812
O       9.43001     13.22453     13.18910         0.307376     -0.042147      0.291001
O       9.53153      1.82423      4.50989         0.215586     -0.125820      0.939524
O       9.74806     13.36295      4.68043        -0.285925     -0.241743      0.094458
O       9.63899      1.90357      8.89583        -0.379665     -0.429413      0.859925
O       9.55100     13.29952      9.03832        -0.605320      0.075828      1.055464
O       9.49477      5.68639      0.43426         0.013199     -0.091418     -0.256492
O       9.39522      5.62179     13.12594        -0.147300      0.168059      0.853999
O       9.59932      5.56693      4.58607        -0.047128      0.615552      0.194110
O       9.27106      5.76455      8.84416         0.685250     -0.148928      0.755524
O       9.57879      9.50836      0.36489        -0.101299     -0.027685      0.897744
O       9.45227      9.49665     13.22097         0.144611      0.001929     -0.061812
O       9.34858      9.54013      4.56679         0.497875     -0.246095      0.288311
O       9.42786      9.42293      8.88401        -0.094391     -0.292906      0.433428
O       3.76351      1.87805      2.60884        -0.708596      0.346927     -0.090055
O       3.82741      1.85624     15.41707        -0.295516      0.429323     -0.141995
O       3.70381     13.38853      2.77058         0.116653     -0.246908     -0.574040
O       3.88315     13.15632     15.36775        -0.396410      0.200203     -0.714581
O       0.02343      1.80245      2.45412        -1.397610      0.708041     -0.016950
O      15.18231      1.82937     15.18735         1.700753      0.012214      0.184050
O       0.02267     13.25381      2.78421        -1.367581     -0.089896     -1.094237
O      15.17680     13.31034     15.30699         0.868135     -0.154379     -0.564017
O       3.81084      1.90639      6.88036        -1.174922     -0.185881     -0.718883
O       3.76975     13.38602      6.80480         0.227736     -0.732933     -0.524797
O      15.08636      2.01850      6.88080         0.663445     -0.568156     -0.111917
O       0.01433     13.24648      6.95971        -0.096240      0.256544     -0.060180
O       3.80517      1.91997     11.07020         1.082486      0.111547     -0.079327
O       3.80713     13.13185     11.09236         1.312155     -0.167892      0.004451
O       0.08736      1.67251     11.22974        -0.236859      0.597291     -0.412876
O       0.10201     13.31883     10.96984        -0.824637     -0.257743      0.543772
O       3.78950      5.66652      2.73285        -0.224202      0.105430     -0.450142
O       3.82490      5.64189     15.43156        -1.210182     -0.491076     -0.276539
O       0.00011      5.66764      2.52513        -0.123245      0.082727      0.045120
O      15.12513      5.70983     15.29754         1.282570      0.410650     -0.107261
O       3.74950      5.73526      6.78584         0.067340     -0.312321      0.162632
O      15.07009      5.71240      6.84452         0.753471     -0.504882     -0.073967
O       3.72337      5.55036     11.14737         0.653261      0.407046     -0.651584
O      15.10863      5.71360     11.04477         0.581016     -0.016547      0.092022
O       3.76645      9.39158      2.66624        -0.360264      0.172234     -0.001209
O       3.79701      9.77574     15.22272         0.633879     -1.164177      0.172116
O      15.17242      9.49613      2.54613         0.492053     -0.179972     -0.042366
O       0.05514      9.31448     15.30152        -0.996670     -0.152455     -0.451607
O       3.79586      9.43899      6.81693         0.089863     -0.006961     -0.110194
O      15.12977      9.47024      6.89099         1.364514     -0.167287      0.087810
O       3.77520      9.52315     11.00567         0.481829     -0.217819     -0.071610
O      15.17450      9.39342     11.09819        -0.349834     -0.610997     -0.135137
O       7.57788      1.83706      2.55626        -0.719907      0.281516     -0.246074
O       7.57084      1.69651     15.21771         0.264802      0.044309      0.423533
O       7.62170     13.26685      2.59756        -0.302026      0.191270     -0.250214
O       7.60277     13.38304     15.34158         1.016357     -0.552647      0.420772
O       7.67200      1.94130      6.77181        -0.324808     -0.562891     -0.258092
O       7.60689     13.22574      6.82228         0.023597      0.385734     -0.241064
O       7.57629      1.69263     10.97351         0.183868      0.364448      0.170118
O       7.58556     13.42585     11.16388         0.425991     -0.383961     -0.394732
O       7.72405      5.59609      2.69533        -1.071157      0.595815     -0.739076
O       7.64159      5.79912     15.34912        -1.471617      0.147313      0.695750
O       7.61661      5.60700      6.76785        -0.819872     -0.275609     -0.523753
O       7.49108      5.57357     11.08528         0.253709      0.548434     -0.036994
O       7.60644      9.74279      2.38047        -0.042950     -0.560439      0.276472
O       7.59737      9.26021     15.27781        -1.656093      0.371601      0.267465
O       7.55328      9.56265      6.76111         0.437828     -0.049893     -0.063787
O       7.51360      9.36955     11.18940         0.167805      0.063687     -0.635551
O      11.42928      1.80058      2.38016         0.404354     -0.252927      0.251772
O      11.43454      1.79509     15.30144        -1.468297      0.368141      0.468116
O      11.46769     13.35391      2.51092        -0.076089     -0.250241      0.111077
O      11.37783     13.23201     15.40479         0.137007     -0.456032     -0.456138
O      11.39820      1.82124      6.74520         0.440866     -0.147011     -0.205624
O      11.39907     13.21298      7.10761        -0.749127      0.338257     -0.412769
O      11.40837      1.95269     11.21312        -0.800871     -0.656341     -0.321922
O      11.44629     13.26390     11.07440        -1.712472     -0.660611      0.037824
O      11.53332      5.72231      2.56305        -2.351402     -0.048599     -0.203522
O      11.30343      5.53497     15.23845         0.357296      0.197994      0.637016
O      11.37343      5.80088      6.75630         0.134324      0.303937      0.105263
O      11.24036      5.57124     11.02359         0.174504     -0.330701     -0.145926
O      11.42850      9.52673      2.49259         0.606012     -0.213569     -0.087117
O      11.48364      9.48494     15.37076        -0.344721      0.293901     -0.654362
O      11.34867      9.34723      6.71134        -0.407017      0.155997      0.153187
O      11.33620      9.54668     11.17940        -0.350357     -0.117498     -0.359605
O       1.78717      3.79638      2.56137         0.614403     -0.479477      0.209013
O       1.84463      3.73589     15.26053         0.307249      0.688821      0.159196
O       1.71685      0.01347      2.56623         1.066965     -0.036710     -0.091799
O       1.99705     15.14333     15.35682        -0.105923      0.452425     -0.382020
O      13.18846      3.77588      2.54196         1.213548     -0.526210     -1.112063
O      13.31695      3.80852     15.34585        -0.229668     -0.528753      0.096894
O      13.34128     15.10098      2.50110         0.155862      1.155552     -0.013305
O      13.28681     15.05969     15.18263        -0.281712      1.047436      0.441481
O       1.81129      3.77124      6.81475         0.318799      0.632150      0.464235
O       1.83719      0.04791      6.78219        -0.188057     -0.213127      0.065268
O      13.11176      3.77713      6.82470         0.759106      0.170130     -0.701533
O      13.31212     15.17906      6.90607         0.050146      0.765810      0.007440
O       1.83197      3.71887     11.11032        -0.132725      0.312398     -0.073370
O       2.13776     15.04410     11.03492        -0.506341      1.203671      0.268910
O      13.33465      3.70349     11.33865         0.447537      1.060474     -0.763326
O      13.34330     15.12675     11.07314        -0.232752     -0.396592      0.081285
O       1.93604      7.55834      2.53613        -0.482043      0.031413     -0.000680
O       2.00295      7.61735     15.34653         0.319976     -1.081468     -0.108489
O      13.25383      7.59545      2.52039         0.506176      0.707620     -0.362199
O      13.15346      7.51888     15.27039         0.248946      2.253814      0.182951
O       1.87565      7.59053      7.03834        -0.418211     -0.478472     -0.770369
O      13.35609      7.59867      6.86452        -0.653349     -1.298894      0.186229
O       1.94735      7.54848     11.05069         0.045290     -1.362486      0.150335
O      13.06590      7.47416     11.04462         0.465644      0.387207     -0.096650
O       1.92516     11.43890      2.48434         0.105333     -0.851647      0.345016
O       1.75748     11.31670     15.29811         0.290632      0.843094     -0.458856
O      13.24068     11.38637      2.58872         0.470025      0.402266     -0.432651
O      13.40133     11.31877     15.38251        -0.500279     -0.668003     -0.840895
O       1.87870     11.41164      6.91235         0.283414     -0.598494     -0.606923
O      13.33412     11.35182      6.89646        -0.343751     -0.933985      0.256438
O       1.87276     11.30053     11.13836        -0.114313      0.394723     -0.334721
O      13.46888     11.29527     11.08909        -1.095856      0.368857     -0.453698
O       5.70395      3.83832      2.63383        -0.026217     -0.899480     -0.280101
O       5.82352      3.72910     15.54934        -0.287860      0.769329     -0.568195
O       5.51743     15.18635      2.48257         0.916765      0.672208      0.412076
O       5.64645     15.05990     15.38875        -0.090484      1.471503     -0.088170
O       5.62189      3.73124      6.73991         0.105885      1.559585      0.124050
O       5.74872     15.16604      6.77855         0.007707      0.271243      0.215238
O       5.68461      3.73658     10.99418         0.164847     -0.470574      0.223049
O       5.65869     15.14696     10.96563        -0.334178      0.166568      0.423311
O       5.89884      7.60988      2.73255        -0.565687     -0.167642     -0.786860
O       5.58094      7.59577     15.61727        -0.068203      0.509801     -1.082768
O       5.75562      7.58069      6.64818        -0.006169      0.215006      0.491273
O       5.63087      7.52425     10.90914        -0.161304     -0.429122      0.175413
O       5.61068     11.42621      2.82615        -0.390029      0.184427     -0.660399
O       5.81933     11.37725     15.42506         0.501038     -0.651308     -0.407323
O       5.65167     11.40074      6.69028        -0.395283     -0.023698      0.193114
O       5.80127     11.33687     11.06170         0.040359      0.295899     -0.179325
O       9.58388      3.79250      2.60967         0.015313     -0.528912     -0.807502
O       9.29392      3.78462     15.45594         0.704357     -1.149614     -0.573402
O       9.43515     15.17872      2.66748         0.522046     -0.372691     -0.580907
O       9.47999     15.10123     15.53139         0.249350      0.814591     -0.948257
O       9.60067      3.76483      6.73751        -0.136028     -0.204944     -0.101533
O       9.52087     15.12274      6.93211        -0.134369      0.592670     -0.495528
O       9.32337      3.66370     11.09583         0.117449      1.138593     -0.198551
O       9.66413     15.19907     11.28768        -1.147991     -0.559711     -1.337871
O       9.49036      7.60913      2.48520         0.029237      0.202333      0.262434
O       9.59804      7.59942     15.33973         0.218866     -1.495136      0.052036
O       9.24852      7.54772      6.68008         0.666811      1.091969     -0.023593
O       9.44399      7.56726     11.11265        -0.084726     -0.630821     -0.475075
O       9.50845     11.40674      2.60366         0.537294      1.047350     -0.118997
O       9.40357     11.28924     15.41935         0.193563      1.252095     -0.289437
O       9.47521     11.39994      6.87587         0.342280     -0.847044     -0.363983
O       9.33822     11.28984     10.97611         0.198814      1.844577      0.596330
