  # total energy = -7864.93400176 
CRSYTAL
PRIMVEC
    15.010000000000000    0.0000000000000000    0.0000000000000000
     0.0000000000000000   15.010000000000000    0.0000000000000000
     0.0000000000000000    0.0000000000000000    16.400000000000000
PRESSURE
17.0079 17.2034 5.96289 0.127995 -0.053558 0.037306
PRIMCOORD
320 1
Pb       3.60106      3.63129      4.03463         1.550990      0.446433      0.397908
Pb       3.64265      3.70740     16.36582         0.155440      0.277273     -0.263093
Pb       3.81454     14.90226      4.13511        -0.279077     -0.046484      0.107054
Pb       3.82535     14.98879      0.09941        -0.182223     -0.129868     -0.819055
Pb      14.99422      3.80294      4.20887        -0.418410      0.140320     -0.411239
Pb      14.90937      3.68193      0.16491         0.170003      0.273274     -1.299003
Pb      14.90351      0.00892      4.25239         0.179129     -0.237148     -0.979166
Pb       0.05875      0.00772      0.10444        -0.109665     -0.234803     -0.402687
Pb       3.58539      3.70462      8.21477         0.603402      0.413061     -0.102563
Pb       3.72696      0.18484      8.24701        -0.180240     -0.508072     -0.550138
Pb      14.83426      3.69514      8.20745         0.257926      0.470279     -0.271758
Pb      14.93499      0.05607      8.22477         0.147774     -0.506374     -0.675455
Pb       3.75497      3.64052     12.44504        -0.138894      0.188556     -0.614991
Pb       3.65705     14.98720     12.28916         0.437009      0.054504      0.022612
Pb      14.88956      3.79905     12.33414         0.362475     -0.031608      0.930754
Pb      14.96313     15.00714     12.33252         0.199690     -0.398241      0.039166
Pb       3.90733      7.55706      4.20667        -0.531395     -0.788736     -0.654945
Pb       3.76280      7.59578     16.39119         0.020433     -0.368121     -0.584432
Pb       0.17419      7.54263      4.16849        -1.245199     -0.146079     -0.066225
Pb       0.09345      7.41061      0.08144        -0.749733     -0.013305     -0.905426
Pb       3.72355      7.52199      8.37341         0.007206     -0.259628     -0.356709
Pb       0.04735      7.53805      8.23741        -0.297205      0.041834      0.010135
Pb       3.66133      7.32579     12.38287         0.111892      0.903477     -0.306467
Pb      14.91994      7.52685     12.30048        -0.052080      0.151947      0.188872
Pb       3.90598     11.06150      4.10807        -0.399981      0.972445     -0.031624
Pb       3.76827     11.26692      0.19705         0.092572     -0.070569     -0.968605
Pb       0.08983     11.16147      4.18833        -0.385572      0.475876     -0.916735
Pb       0.09360     11.20988      0.14561        -0.440866      0.337354     -0.743045
Pb       3.70280     11.30992      8.24187         0.320685     -0.396177     -0.232644
Pb       0.05842     11.28451      8.16507        -0.493304     -0.045872      0.460699
Pb       3.72639     11.13555     12.33774        -0.165066      0.017473     -0.132709
Pb       0.00820     11.21774     12.30310        -0.629291      0.157036     -0.288837
Pb       7.40925      3.88252      4.08295        -0.166069     -0.949598      0.141916
Pb       7.44467      3.69388      0.10122        -0.214981     -0.178885     -0.546024
Pb       7.52456     14.92764      4.07267        -0.237246      0.260653      0.492353
Pb       7.60383     14.86774      0.04414        -0.181711      0.713119     -0.352628
Pb       7.42119      3.80168      8.30200         0.067842      0.086294     -0.891400
Pb       7.38156      0.00974      8.26791         0.143250      0.104467     -0.257079
Pb       7.38172      3.75009     12.41005         0.034390      0.347103     -0.418920
Pb       7.41229      0.07085     12.21729         0.222761     -0.621873      0.383231
Pb       7.65702      7.41653      4.15953        -0.134040      0.550032      0.040314
Pb       7.50536      7.39876     16.38254        -0.363820      0.514459     -0.223342
Pb       7.59691      7.41719      8.19900        -0.437643     -0.453614      0.433853
Pb       7.45069      7.58675     12.22472         0.006053     -0.662664      0.109671
Pb       7.53561     11.08631      4.16226         0.038043      0.461983     -0.125439
Pb       7.46781     11.25188     16.39377        -0.217124     -0.288670      0.223517
Pb       7.58330     11.27268      8.21302        -0.159460      0.288065     -0.515488
Pb       7.48583     11.33296     12.25707        -0.039178     -0.166717     -0.020930
Pb      11.30513      3.76232      4.19613        -0.496505      0.130034     -0.603057
Pb      11.23938      3.76306      0.10501         0.094640     -0.324758     -0.276409
Pb      11.20929     14.89609      4.08752         0.224066      0.612361     -0.459849
Pb      11.38371     14.97785      0.00199        -0.995281      0.400858      0.304677
Pb      11.18294      3.66966      8.39212        -0.379414      0.467500     -1.192550
Pb      11.18996     15.00817      8.22187         0.324116      0.034512     -0.404874
Pb      11.13410      3.74859     12.35095         0.006097      0.090488     -0.234879
Pb      11.16729     14.84089     12.40471        -0.188017      0.582927     -0.707062
Pb      11.33468      7.50655      4.12814        -0.045388     -0.216265     -0.270518
Pb      11.22657      7.41089     16.39506         0.764996      0.249507      0.438780
Pb      11.31470      7.46813      8.24805        -0.077278      0.345908     -0.064948
Pb      11.02000      7.51446     12.34213         0.814624     -0.106488     -0.153447
Pb      11.20404     11.19000      4.11289         0.107799     -0.060085     -0.093978
Pb      11.17785     11.33361      0.02719         0.271776     -0.498568     -0.346913
Pb      11.33440     11.40617      8.20558        -0.166985     -0.910786     -0.054108
Pb      11.13546     11.22205     12.35012         1.090833     -0.343287     -0.239544
Ti       1.87094      1.89269      2.08843        -0.664541     -1.077824      0.244894
Ti       1.87794      1.80795     14.36890        -0.527628      0.917342      0.220468
Ti       1.87060     13.14914      2.12530        -0.964274     -0.693536      0.587960
Ti       1.87685     13.09960     14.38916        -0.155595     -0.232335     -0.492863
Ti      13.10471      1.90301      2.09147        -0.399387     -1.126082      0.255508
Ti      13.07161      1.81697     14.41364         0.676347      1.004967      1.163255
Ti      13.14993     13.11221      1.94862         0.507699     -0.057110      1.425439
Ti      13.11643     13.06048     14.36326         0.830179     -0.576355     -0.075591
Ti       1.74441      1.91384      6.15121         1.621938     -0.998207      0.027883
Ti       1.93498     13.10164      6.20609        -0.118150      1.578100     -0.457203
Ti      13.04064      1.91549      6.13266        -0.250501     -0.695876     -0.591667
Ti      13.19116     13.10005      6.06704        -0.570427      0.908669      0.219858
Ti       1.75419      1.93173     10.29525         0.985065     -0.075386      0.101806
Ti       1.89290     13.18065     10.25184        -1.346492     -1.092062     -0.317949
Ti      13.04873      1.82295     10.39324        -0.854580      0.935991     -0.609254
Ti      13.07777     13.13653     10.23215         1.087005     -1.952050      0.189289
Ti       1.82848      5.59059      2.04222         0.845578      1.332217     -0.846503
Ti       1.82496      5.62965     14.36858        -1.044492     -0.921703      0.610435
Ti      13.10258      5.64438      2.06058        -0.415013      0.432338      0.472444
Ti      13.09750      5.61259     14.30610         0.125407      0.015513      0.422366
Ti       1.87304      5.62822      6.17735         0.041322      0.077942     -0.177377
Ti      13.14818      5.72820      6.27339        -0.727085     -0.732639     -0.550309
Ti       1.76718      5.61033     10.36282         0.677696      0.061291     -0.332638
Ti      13.07973      5.60252     10.29850        -0.591871      0.575923      0.160298
Ti       1.80921      9.33958      1.99341         0.067924      0.180387      0.975433
Ti       1.87713      9.34500     14.34772        -0.023018     -0.049744     -0.321727
Ti      13.07890      9.37338      2.07792        -0.211270     -0.036049     -0.183144
Ti      13.10944      9.32458     14.46621         0.360864      0.659857     -0.684220
Ti       1.95244      9.38173      6.17655        -0.669916     -0.397972      0.114554
Ti      13.15897      9.44910      6.19783        -0.396353     -0.986760     -0.297922
Ti       1.82654      9.41008     10.23436         0.646162     -0.693522      0.056581
Ti      13.12401      9.32720     10.30729        -1.257513      1.880368     -1.045011
Ti       5.61474      1.75977      2.08280        -0.488382      2.360170      0.272443
Ti       5.63725      1.88854     14.43334        -0.106591     -1.773132     -0.167963
Ti       5.63500     13.05055      2.11327         0.230310     -0.696953      0.811458
Ti       5.60823     13.09490     14.33604        -0.105197      0.981564      0.076170
Ti       5.62136      1.88126      6.11548         1.037319      0.306671     -0.808812
Ti       5.61483     13.09404      6.27904         0.906657      0.428904     -1.099888
Ti       5.60164      1.84077     10.34101        -0.586141      1.013206     -0.449796
Ti       5.51128     13.03004     10.22520         1.242157      1.536309      0.090425
Ti       5.55885      5.65642      1.92441        -0.539169     -1.935649      0.666652
Ti       5.60857      5.64238     14.34506        -0.183487     -0.462225      0.763236
Ti       5.54039      5.60646      6.09234         0.722472     -1.166716     -0.065920
Ti       5.49660      5.63025     10.27177         1.320990     -0.816230      0.198098
Ti       5.61213      9.24274      2.11624         1.398311      1.867776     -1.119447
Ti       5.68452      9.35184     14.31529        -1.052758      0.557766      0.027043
Ti       5.69573      9.24595      6.29660        -0.379621      1.092664      0.218319
Ti       5.64629      9.37805     10.23136        -0.330107     -0.756938     -0.195471
Ti       9.30705      1.91056      2.05606         1.096263     -0.309698      0.806813
Ti       9.38519      1.91295     14.34702        -0.307719     -0.794932      0.508236
Ti       9.37956     13.14569      2.09277         0.246250     -0.524955     -0.432987
Ti       9.33385     13.13558     14.35144         0.022613     -0.404281      0.092702
Ti       9.32642      1.81062      6.18780        -0.317370      2.975172     -1.143597
Ti       9.41813     13.21554      6.18651        -0.729963     -1.499665     -0.548343
Ti       9.30166      1.87615     10.25135         0.246976     -0.530528      0.825591
Ti       9.35668     13.12189     10.21651        -0.584518      0.577894     -0.053503
Ti       9.30388      5.58985      1.97777         1.468980      0.091635      0.773014
Ti       9.32665      5.58409     14.45046         0.757411      0.158978     -1.152040
Ti       9.38512      5.59788      6.16089        -0.083302     -1.130674      0.819052
Ti       9.30527      5.62717     10.29727         0.050312     -0.180848     -0.442544
Ti       9.36833      9.34709      1.89758        -0.734388     -0.063298      0.516638
Ti       9.37781      9.34001     14.41029        -0.016594      0.658060     -0.485570
Ti       9.38035      9.36841      6.35307         1.088904      0.540789     -1.196963
Ti       9.34969      9.40264     10.30978         0.675947     -0.600702     -0.017616
O       1.91065      1.76202      0.26033         0.251697      0.756526      0.092937
O       1.91858      1.79306     12.53131        -0.231120     -0.135711     -0.087142
O       1.73174     13.08250      0.29661         0.573706     -0.196987     -0.908697
O       1.85883     13.11244     12.43790        -0.130095      0.015886      1.737125
O      13.09215      1.91991      0.22112         0.459455     -0.241333      0.177499
O      13.01702      1.80248     12.64030         0.116540     -0.086628     -1.406788
O      13.22441     13.19028      0.11448        -0.426312     -0.649532      0.781441
O      13.08924     13.05502     12.50455         0.336846      0.677907      0.188821
O       1.77554      1.90380      4.29328        -0.049393     -0.018741      0.663916
O       1.86106     13.18360      4.36400         0.223996     -0.130687      0.275728
O      13.13277      1.88542      4.23195        -0.101374     -0.043948      1.171109
O      13.16992     13.08960      4.24498        -0.286837      0.481371      0.917856
O       1.68521      1.88215      8.42328         0.198092      0.431638      0.997953
O       2.00066     13.12725      8.39347        -0.197769      0.057556      0.232993
O      13.14740      1.91444      8.48889        -0.065665     -0.366733      0.963463
O      13.06984     12.99916      8.36017         0.138380      0.779345      0.821768
O       1.74647      5.61297      0.13902         0.412903     -0.069612      1.534114
O       1.77908      5.64112     12.52816         0.142913      0.327923     -0.116786
O      13.10499      5.63867      0.23767         0.180307     -0.173738      0.491710
O      13.15189      5.73533     12.44057        -0.163971     -0.040616      1.178505
O       1.83340      5.42316      4.32741         0.336034      1.234549      0.211065
O      12.93750      5.61861      4.44195         0.810433      0.014997     -0.407818
O       1.80039      5.57688      8.51989         0.072874      0.053029     -0.239299
O      13.08058      5.62457      8.41652         0.191708     -0.491115      0.918810
O       1.85978      9.41748      0.16406        -0.015557     -0.437614      0.764471
O       1.97003      9.42636     12.46052        -0.437868     -0.180528      0.261195
O      12.98380      9.37184      0.21720         0.593850      0.170377      0.760111
O      13.11264      9.40520     12.56675         0.094277     -0.742117      0.368871
O       1.83278      9.33906      4.30461         0.600600      0.092039      0.581886
O      13.14551      9.33852      4.32101        -0.515763      0.205504      0.748520
O       1.82756      9.28396      8.34286        -0.090823      0.313110      0.578790
O      13.17006      9.44393      8.38409         0.047771      0.224841      0.866290
O       5.57078      1.89152      0.19822        -0.090112      0.021983      0.627221
O       5.58097      1.77627     12.54366        -0.210725     -0.050490      0.058313
O       5.57377     13.01202      0.32598         0.240788      0.243885     -0.809182
O       5.63140     13.18722     12.51341        -0.000228     -0.404492      0.133702
O       5.69627      1.86814      4.21465        -0.441233     -0.505832      1.478492
O       5.66969     13.24876      4.37626        -0.640014     -0.418159     -0.157699
O       5.77869      1.95736      8.47043        -0.506131     -0.144492      0.604785
O       5.40429     13.12819      8.39642         0.712442     -0.178387      0.096921
O       5.66211      5.61760      0.08010        -0.449189     -0.150415      0.947910
O       5.63252      5.63835     12.54553        -0.052942      0.200869     -0.485695
O       5.51310      5.68811      4.21550         0.295873      0.089273      0.944735
O       5.49261      5.42671      8.47191         0.047690      0.311232      0.435372
O       5.65928      9.43896      0.26869        -0.441089     -0.546569      0.257634
O       5.57947      9.42175     12.47362         0.124056     -0.186851      0.845829
O       5.76693      9.32315      4.33164        -0.917395     -0.360838      0.939791
O       5.68679      9.40426      8.37716         0.013525     -0.119212      0.645205
O       9.37699      1.82580      0.24514        -0.571308      0.155127      0.105484
O       9.38989      1.88676     12.54153         0.245737      0.258589      0.021391
O       9.43039     13.19691      0.17910        -0.349621     -0.000526      0.639371
O       9.32566     13.02246     12.46106         0.094114      0.304858      1.015658
O       9.31667      1.80040      4.33481         0.306780      0.125439      0.151964
O       9.43222     13.16407      4.25061         0.022980     -0.020831      0.581076
O       9.20188      1.86674      8.44422         0.712507     -0.546518     -0.018095
O       9.41976     13.09864      8.35571         0.113906      0.503701      0.450806
O       9.34398      5.56171      0.12061        -0.019335      0.207050      0.994088
O       9.22628      5.62971     12.53499         0.780915     -0.267124      0.407826
O       9.23526      5.54019      4.29788         0.541479      0.500296      0.878173
O       9.48150      5.60636      8.43428        -0.241142      0.371118      0.415055
O       9.25947      9.24632      0.07451         0.725422      0.398166      1.557469
O       9.42241      9.36546     12.48450        -0.465505     -0.033761      1.137745
O       9.16973      9.39677      4.46510         0.729371     -0.281655      0.221992
O       9.33505      9.33254      8.49150        -0.260828      0.283096     -0.949454
O       3.69048      1.78949      2.50592         0.778362     -0.513785     -0.692381
O       3.76177      2.06497     14.59185        -0.672309      0.136327      0.236482
O       3.72793     13.09502      2.25247         0.649061      0.401137      0.688295
O       3.79566     12.87027     14.67846        -1.060195     -0.012122      0.011921
O      15.00196      2.08954      2.29763         0.512608      0.068272     -0.173663
O       0.03851      1.66480     14.66294        -0.917382     -0.390779     -0.246130
O      14.99767     12.90659      2.37922         0.068970     -0.075580     -0.455858
O       0.02844     13.29194     14.62282         0.237506      0.168857     -0.561822
O       3.80539      1.90143      6.47671        -1.135711     -0.322192     -0.050877
O       3.78328     13.22881      6.38764        -0.792664      0.680022     -0.170648
O      14.96990      1.84860      6.39627        -0.909524      0.662691      0.098825
O       0.02180     13.03323      6.49064         0.163690      0.054356     -0.204810
O       3.69158      1.82508     10.42660         0.149520     -0.677283     -0.027382
O       3.71140     13.20250     10.55392         0.228169      0.111312      0.200142
O      14.93531      2.17990     10.69352         0.106421     -1.495473     -0.756333
O      14.99091     13.01995     10.35509        -0.157805     -0.172362      0.373700
O       3.69459      5.87368      2.14900         0.410021      0.599345      0.178778
O       3.68353      5.55202     14.54049         1.345282     -0.560648      0.132936
O       0.00008      5.50053      2.24882        -1.098648     -0.764213      0.529971
O      14.96419      5.87240     14.62313        -0.259478      0.236638     -0.300258
O       3.73319      5.73459      6.57577        -0.936664     -0.085249     -0.521453
O      14.98830      5.46140      6.30709         0.370388      0.237594      0.568088
O       3.68758      5.77342     10.63048         0.102850      0.009703     -0.293021
O      14.96296      5.37004     10.59527        -0.192360      0.470939     -0.564795
O       3.71860      9.00588      2.33113         0.073958      0.841442     -0.103805
O       3.73261      9.48007     14.59815         1.586553      0.052687      0.200600
O      14.91321      9.61348      2.35952         1.067452     -0.379499     -0.603338
O       0.03262      9.10471     14.52718        -0.920686      0.142075      0.228844
O       3.77007      9.17866      6.53856         0.307528      0.065029     -0.759886
O       0.00497      9.60052      6.25720         0.665549      0.063734      0.684934
O       3.81159      9.20799     10.42247        -1.029537      0.086526     -0.004829
O      14.94823      9.46884     10.46350         1.855355      0.491958      0.397701
O       7.40912      2.09035      2.30764         0.959405      0.027516     -0.474471
O       7.52482      1.77435     14.55217        -0.446282     -0.542182      0.411636
O       7.52524     12.89427      2.25696        -0.295397      0.210597      0.110307
O       7.47033     13.33224     14.71170         0.249896     -0.224375     -0.364484
O       7.51660      2.04600      6.40801        -0.732612     -0.063193      0.032467
O       7.53022     13.04773      6.38968        -0.122520      0.017746      0.559573
O       7.49895      1.90003     10.73253        -0.360735      0.429632     -0.600839
O       7.43398     13.06828     10.35740         0.345808     -0.537355      0.289087
O       7.50182      5.28253      2.12314        -1.094227      0.495409      0.152880
O       7.50320      5.71409     14.62058        -0.166572      0.173116      0.046549
O       7.45698      5.49912      6.51383         0.504785      0.081423     -0.339332
O       7.48777      5.46165     10.47238        -0.628251     -0.615643     -0.008318
O       7.52446      9.65527      2.24541         0.221007     -0.639100      0.090137
O       7.52106      9.11908     14.67011        -0.400408      0.088260     -0.676730
O       7.47954      9.56620      6.53177         0.228432     -0.199453     -0.062048
O       7.50970      9.45777     10.70267        -0.483843      0.800104     -0.546238
O      11.24097      1.70987      2.22837        -0.390649     -0.498313      0.348341
O      11.24044      2.14831     14.77114         0.572954     -0.790233     -0.667372
O      11.25799     13.35758      2.18753         0.391118      0.179563      0.210164
O      11.24084     12.82042     14.61486        -0.452437      0.757180     -0.461464
O      11.24754      1.82100      6.46254        -0.277105     -0.545808      0.279119
O      11.29599     13.30588      6.33616        -0.396778      0.156390      0.236147
O      11.13031      1.63645     10.64241         2.025328      0.419003     -0.600887
O      11.23489     13.21886     10.42883         0.029751      0.254653      0.188451
O      11.23591      5.81142      2.38925        -0.427673      0.051465     -0.443788
O      11.24394      5.27350     14.68501         0.577807      0.983876     -0.714166
O      11.28455      5.93887      6.46940        -1.570048     -0.588915     -0.453402
O      11.22075      5.79208     10.63281         0.515492      0.033141     -0.362023
O      11.17117      9.08327      2.29775         0.241506      0.280931      0.252148
O      11.19495      9.60318     14.61575         0.696310      0.166826     -0.012414
O      11.27115      9.27848      6.43362        -1.103164     -0.374897      0.007742
O      11.19627      9.21379     10.56486         0.536441     -0.420120     -0.124805
O       2.08479      3.80626      2.32023        -0.443342     -1.360678     -0.750364
O       1.67169      3.73414     14.61245         0.296953     -0.136488      0.149562
O       1.79910     14.95251      2.25710        -0.357301      1.518582      0.408902
O       2.16414     14.98156     14.65050        -0.072203     -0.918063     -0.103891
O      12.87610      3.75061      2.27254         0.526556      0.533902      0.272098
O      13.39264      3.78502     14.60108        -0.096439     -0.695741     -0.148949
O      13.39604     14.96743      2.27339        -0.238835      0.618447     -0.030456
O      12.94400     14.94564     14.64989        -0.118049      0.719816     -0.535794
O       1.84773      3.76943      6.38883         0.445209     -0.691013      0.599769
O       1.86665      0.08930      6.55237        -0.098210     -1.193733     -0.466902
O      13.00176      3.72732      6.42151         0.310374      0.693527      0.125411
O      13.20852      0.01013      6.35511         0.266399     -0.338514      0.212422
O       2.08358      3.73779     10.64136        -0.539438      0.188201     -0.403767
O       1.71290     14.98205     10.49796        -0.172179      1.737492      0.042506
O      12.99390      3.73712     10.68430        -0.872953     -0.024777     -0.486275
O      13.19489     15.00395     10.49119         0.614912      0.019349      0.218007
O       1.54376      7.50168      2.33590         0.547442     -0.112200     -0.380836
O       2.08313      7.47384     14.73713        -0.345794      0.529587     -0.449976
O      13.28496      7.51442      2.45420         0.007018     -0.323061     -0.426747
O      12.91910      7.49294     14.75855        -0.401331     -0.472558     -0.677008
O       1.69671      7.50576      6.35557         0.002938     -0.254406     -0.000287
O      13.29824      7.55090      6.59902         0.165393      0.333563     -0.531699
O       1.77160      7.54445     10.50271        -0.399362     -1.144229      0.174578
O      13.36926      7.52316     10.39576        -0.324630     -1.664043      0.206671
O       1.94697     11.16008      2.31267         0.701459      0.227652      0.123877
O       1.74892     11.18113     14.62503        -0.403340      1.369931     -0.069998
O      12.91689     11.28130      2.42276        -0.480028     -0.701002     -0.834850
O      13.29261     11.23349     14.59426         0.579565     -0.297121      0.363144
O       2.08986     11.25725      6.42969        -0.306808     -0.264615     -0.143183
O      12.89916     11.29271      6.36526         0.386645     -0.240372     -0.089251
O       1.98597     11.22820     10.37598         0.084462      0.287949      0.312966
O      12.98635     11.21278     10.59986        -0.060703      0.882891     -0.392957
O       5.38245      3.80583      2.25557        -0.155560     -0.308967     -0.221729
O       5.73565      3.70855     14.46980         0.188620      1.404507      0.433798
O       5.72479     14.96912      2.29335        -0.068261     -0.617909     -0.167463
O       5.38027     14.99970     14.72945         0.360249     -0.567516     -0.265686
O       5.57249      3.80327      6.22790        -0.282002     -1.250688      0.429527
O       5.83957      0.01730      6.53167        -0.874171      0.543342     -0.388640
O       5.51680      3.74326     10.67753        -0.005430     -0.249103     -0.075263
O       5.65168     14.97611     10.44382         0.156214      0.225601      0.085714
O       5.86705      7.47071      2.36351         0.420681     -0.542739     -0.291541
O       5.58836      7.47229     14.63216        -0.678592      0.850993     -0.012204
O       5.72919      7.38445      6.58540         0.088988      2.172910     -0.376663
O       5.83494      7.48732     10.47880        -0.399794     -0.083566     -0.138852
O       5.49846     11.17586      2.38284        -0.655096     -0.032350      0.294462
O       5.83954     11.23333     14.59439         0.208408     -0.266179     -0.177692
O       5.47666     11.25653      6.36525        -0.005789     -1.075945      0.007156
O       5.49648     11.22933     10.46958         0.121022     -0.112637      0.306583
O       9.55888      3.77335      2.38807        -0.031251     -0.948057     -0.391408
O       9.27254      3.73386     14.63264        -0.669276      0.052307     -0.079201
O       9.14097     15.00494      2.31195        -0.010621      0.233868     -0.228130
O       9.54646     14.97969     14.50387         0.383012      0.204249      0.247240
O       9.51035      3.74324      6.49324         0.458045      0.762192     -0.170381
O       9.30373      0.04639      6.43741        -0.131068     -1.432703      0.567426
O       9.64540      3.71058     10.30915        -0.464589      0.287977      1.034088
O       9.29156     14.94591     10.57641        -0.313597      0.406464     -0.170959
O       9.06702      7.41590      2.31569         0.186037      1.142702     -0.344112
O       9.73878      7.46914     14.65562        -0.972878     -0.283448     -0.849391
O       9.11008      7.47724      6.45497         0.622946      0.770351     -0.329427
O       9.07923      7.46002     10.48234         0.854859      0.980808      0.221167
O       9.68525     11.21918      2.19556        -0.415825     -0.062621      0.074501
O       9.09906     11.24515     14.71276         0.395057     -0.088018     -0.748548
O       9.46579     11.34848      6.42189         0.170464     -1.370492      0.197843
O       9.51745     11.26384     10.52724        -0.574134     -0.218716     -0.281935
