  # total energy = -7863.20402464 
CRSYTAL
PRIMVEC
    15.010000000000000    0.0000000000000000    0.0000000000000000
     0.0000000000000000   15.010000000000000    0.0000000000000000
     0.0000000000000000    0.0000000000000000    16.400000000000000
PRESSURE
16.8801 17.1533 8.73372 -0.14564 -0.204803 0.025962
PRIMCOORD
320 1
Pb       3.67101      3.62808      4.10377        -0.006613      0.344046     -0.116716
Pb       3.61908      3.71980     16.38372         0.898237      0.355249     -0.690210
Pb       3.79292     14.93284      4.15562         0.032659     -0.531083     -0.492501
Pb       3.85077     14.98505      0.10329        -0.242999     -0.509810     -0.338809
Pb      14.96506      3.82456      4.18891        -0.264117     -0.016833     -0.034888
Pb      14.89310      3.64519      0.15185         0.261724      0.387929     -0.515285
Pb      14.88034      0.02340      4.27573         0.731840     -0.016240      0.028136
Pb       0.06302     14.99951      0.14963        -0.415869     -0.396166     -1.040072
Pb       3.51244      3.71844      8.25135         0.791898      0.583693     -0.447989
Pb       3.71954      0.19031      8.24965        -0.041827     -0.797374     -0.846304
Pb      14.81078      3.73622      8.26917         0.345681     -0.122760     -0.186240
Pb      14.88326      0.02200      8.21798        -0.138654      0.282920      0.084551
Pb       3.75217      3.64241     12.40824        -0.479114      0.722371      0.469269
Pb       3.62924     14.99033     12.31515         0.550237     -0.949494      0.155566
Pb      14.89251      3.79827     12.36249         0.128995     -0.209373     -0.391651
Pb      14.97579     14.99311     12.33022        -0.445519     -0.117581      0.020666
Pb       3.88936      7.54761      4.19284         0.293695     -0.441021     -0.027060
Pb       3.76347      7.58408      0.04441         0.325480     -0.109149     -0.756144
Pb       0.18531      7.54471      4.18949        -0.688919     -0.769730     -0.408082
Pb       0.05695      7.40995      0.08618        -0.068996      0.890680     -0.739918
Pb       3.71210      7.53727      8.35396         0.599172     -0.771683     -0.980365
Pb       0.06563      7.55080      8.29810        -0.411577     -0.497006      0.028027
Pb       3.63644      7.35890     12.35569         0.384815      0.488422     -0.015919
Pb      14.88891      7.49778     12.29173         0.565967      0.320435      0.246204
Pb       3.90313     11.04411      4.17775        -0.495718      0.667489      0.160251
Pb       3.76878     11.22185      0.17872        -0.096203      0.319326     -0.901225
Pb       0.12769     11.12959      4.18089         0.097838      0.444392     -0.240239
Pb       0.10293     11.26244      0.16880        -0.126592     -0.473278     -1.028599
Pb       3.71978     11.29565      8.26314         0.001965      0.090708     -0.520058
Pb       0.08601     11.28020      8.18588        -0.064946      0.000703     -0.206950
Pb       3.72140     11.15428     12.31916         0.255677      0.615358     -0.496491
Pb       0.00893     11.24898     12.29574         0.332360     -0.087072      0.164414
Pb       7.40242      3.90089      4.05252         0.573405     -0.550149     -0.008358
Pb       7.43866      3.69350      0.10387         0.629147     -0.077774     -1.124586
Pb       7.53266     14.90399      4.09323        -0.508575      0.258886     -0.130014
Pb       7.54768     14.85769      0.04371        -0.206032      1.090557      0.099061
Pb       7.41015      3.78032      8.29990        -0.165841     -0.034943     -0.322270
Pb       7.39541      0.08608      8.27703         0.419283      0.027255     -0.961887
Pb       7.33491      3.79139     12.40656         0.381512     -0.434153      0.131312
Pb       7.42254      0.02748     12.22626        -0.113192     -0.325029      0.190355
Pb       7.66764      7.42638      4.12771        -0.912617      0.303684      0.491424
Pb       7.51613      7.39275     16.36719        -0.196953      0.486466     -0.360521
Pb       7.61027      7.38509      8.25734        -0.841005      0.592482     -0.458779
Pb       7.45562      7.60014     12.24016        -0.536994      0.068399      0.656892
Pb       7.59929     11.06475      4.17305        -0.637518      0.510015      0.279766
Pb       7.46314     11.26365      0.00659        -0.003714     -0.245881     -0.902067
Pb       7.61682     11.29251      8.19211        -0.255018     -0.455079      0.182074
Pb       7.49220     11.35720     12.20511        -0.526208     -0.576356      0.252315
Pb      11.23940      3.78539      4.18710        -0.098908      0.403866     -0.063237
Pb      11.25255      3.77366      0.11237        -0.307160     -0.467456     -0.723443
Pb      11.23751     14.89440      4.06953         0.051285      0.392452      0.780432
Pb      11.35259     14.96988      0.04032        -0.535421      0.378657     -0.674422
Pb      11.18981      3.68321      8.39680        -0.081212     -0.309616     -0.316327
Pb      11.18739      0.00761      8.24818        -0.119990      0.421516     -0.613039
Pb      11.10552      3.75136     12.34217         0.482696     -0.465908     -0.211606
Pb      11.17274     14.89261     12.43267         0.412346      0.284221     -0.278172
Pb      11.37853      7.50343      4.15168        -0.473949     -0.300725     -0.035278
Pb      11.23068      7.39772      0.04182        -0.235936      0.891730     -0.588261
Pb      11.28817      7.45111      8.26827        -0.156298      0.316536      0.218927
Pb      11.03109      7.46554     12.33195         1.474213      0.676014     -0.011189
Pb      11.24402     11.14477      4.11211         0.496085      0.218778     -0.185728
Pb      11.20917     11.27039      0.03809         0.254009     -0.456379     -0.603053
Pb      11.33971     11.40660      8.25524        -0.248611     -0.353949     -0.203976
Pb      11.12982     11.23071     12.33475         0.524959      0.051997      0.157534
Ti       1.90862      1.85346      1.99093        -0.419989      0.145083      0.785806
Ti       1.88613      1.83016     14.41377        -0.376572     -0.539712     -0.368693
Ti       1.86100     13.13602      2.04296         1.872811     -0.675945      0.396422
Ti       1.94448     13.09318     14.25662        -1.129799     -0.441291      1.971340
Ti      13.10983      1.84619      2.15942         0.058895      0.606479      0.148392
Ti      13.12824      1.82099     14.40552        -0.955509     -1.032996     -1.030704
Ti      13.21579     13.07731      2.05469        -0.683336     -0.416542      0.261674
Ti      13.17356     13.00565     14.34043         0.094322      1.250839      0.176799
Ti       1.80029      1.88163      6.19536        -0.634191     -0.043325     -0.161065
Ti       1.94462     13.18172      6.15006        -0.214976     -1.437854     -0.348496
Ti      13.02377      1.95787      6.20192        -0.638797     -0.230066      0.412212
Ti      13.18103     13.12383      6.16263        -0.880893      0.273506      0.131304
Ti       1.77824      1.95159     10.35963        -1.268676     -0.024209     -0.112279
Ti       1.79370     13.20016     10.19654         1.024149     -0.476193      1.177073
Ti      12.98487      1.76740     10.41063         0.870781      0.315944     -0.307901
Ti      13.11857     13.07901     10.26657        -0.243046      1.478225      0.321409
Ti       1.93705      5.61182      1.97789        -0.548779     -0.458065      2.186981
Ti       1.82742      5.61410     14.41365         0.958815      0.763989     -0.706460
Ti      13.12173      5.64493      2.10144         0.148485     -0.888787      1.121621
Ti      13.13221      5.65045     14.42282        -0.272552      0.024415     -0.182606
Ti       1.89171      5.60679      6.15074         0.208138     -0.128220      0.305291
Ti      13.14539      5.74891      6.29521         0.060660     -1.210490     -1.000356
Ti       1.78204      5.63759     10.22722        -0.008832      0.132226     -0.118885
Ti      13.03483      5.60016     10.30594         0.130292      0.779355     -0.294992
Ti       1.87098      9.30139      2.02479         0.731824      0.686605      0.124052
Ti       1.91955      9.35363     14.38101        -1.184484      0.374330      0.301082
Ti      13.06511      9.30600      2.00636         0.155966      0.531280      0.629604
Ti      13.16288      9.35821     14.30562        -0.323910     -0.157175      0.509217
Ti       1.91164      9.30378      6.18795         0.209321      0.915938      0.740870
Ti      13.11081      9.39205      6.19443         0.469369      0.273577      0.827529
Ti       1.93658      9.40643     10.19164        -1.631232      0.113946      1.530194
Ti      13.19722      9.42551     10.24261        -0.159728     -1.765499      1.733909
Ti       5.62844      1.89642      1.98901         0.623527     -1.612260      0.693562
Ti       5.63239      1.79591     14.38263         0.332965      1.036902      0.747908
Ti       5.66982     13.02466      2.08282        -1.111120      0.931181      0.322019
Ti       5.59873     13.13942     14.37895        -0.298282     -1.434249     -0.354038
Ti       5.60888      1.88571      6.01326        -0.302411     -0.224246      2.109724
Ti       5.66879     13.08513      6.23664        -1.230917      0.533857     -0.891268
Ti       5.45845      1.87888     10.35391         1.674036     -0.469313     -0.217944
Ti       5.55475     13.10800     10.12464        -0.709601     -0.634826      1.086181
Ti       5.56098      5.58076      1.95120         0.322605      1.544526      0.443077
Ti       5.64001      5.64895     14.33349        -0.576064      0.219629     -0.118018
Ti       5.62749      5.57523      6.10844        -0.638603      1.084930      1.619323
Ti       5.51149      5.57464     10.29399         0.735409      0.353991     -0.439918
Ti       5.67477      9.32876      2.04506        -0.939514     -1.060183      1.402734
Ti       5.62561      9.41947     14.27445         0.504039     -0.554301      0.289885
Ti       5.71177      9.33358      6.38803         0.051725     -0.560522     -0.840543
Ti       5.71652      9.33001     10.24206        -0.356430      0.454897      0.613809
Ti       9.36835      1.83922      2.03117         0.137505     -0.056892     -0.785307
Ti       9.38902      1.89904     14.33112        -0.091911     -0.433616      0.699730
Ti       9.40527     13.13407      2.05958        -0.225891      0.222075      0.369372
Ti       9.32742     13.11030     14.31507         0.890576      0.446004      0.484892
Ti       9.27012      2.01199      6.16662         0.870931     -2.159104      0.600747
Ti       9.40600     13.18052      6.14867         0.054513      0.974839      0.801420
Ti       9.19846      1.82646     10.25993         2.246662      2.030319     -0.893367
Ti       9.29822     13.17672     10.19419         1.191990     -0.439574      0.058751
Ti       9.34037      5.65412      2.00956        -0.424775     -0.494981      0.121437
Ti       9.40089      5.63853     14.25312        -0.959250     -0.278456      1.361773
Ti       9.38651      5.65203      6.27373        -0.462292      0.030406     -0.585707
Ti       9.23327      5.65404     10.35383         0.816978     -1.149641     -0.476227
Ti       9.29933      9.40157      2.05117         1.566815     -0.886007     -0.869551
Ti       9.36418      9.42184     14.35579         0.277757     -0.766825      1.141451
Ti       9.45195      9.40790      6.24754        -0.535613     -1.047879      0.150675
Ti       9.43476      9.40775     10.24323         0.013084     -0.502845     -0.642333
O       2.02133      1.90241      0.15197        -0.597049     -0.683465      0.131823
O       1.78640      1.73136     12.57644         0.449342      0.793043     -0.138361
O       1.69929     13.03301      0.17341         0.524849      0.628607      0.304592
O       2.00390     13.02618     12.48679        -0.304210      0.291146     -1.064740
O      13.13487      1.84580      0.33532        -0.234994      0.215234     -0.862472
O      12.90657      1.71496     12.45220         0.834255      0.325269      1.204482
O      13.14406     12.94790      0.22156         0.315029      0.945871     -0.019937
O      13.06857     13.24314     12.52764         0.081912     -0.745725     -1.009612
O       1.72694      1.86845      4.35615         0.584387      0.178026     -0.407675
O       1.82130     13.18626      4.26503        -0.094524     -0.147368      0.605640
O      13.07457      1.96256      4.34181        -0.091895     -0.515062     -0.455695
O      13.14078     13.02798      4.29616         0.160320      0.270213     -0.197907
O       1.74169      2.06706      8.51426         0.389349     -0.779389      0.050856
O       1.84106     13.14037      8.44160         0.103581     -0.186176     -1.295933
O      13.12734      1.90736      8.53229         0.202652      0.214834     -0.950442
O      13.11760     13.21401      8.41810        -0.025362     -0.718762     -0.201755
O       1.84746      5.50631      0.23563        -0.193033      0.486556     -1.754510
O       1.86883      5.81666     12.56872        -0.557626     -0.974277     -0.049303
O      13.21329      5.61377      0.28520        -0.839457     -0.225483     -1.082666
O      13.16357      5.69450     12.62167         0.087273     -0.537866     -1.063045
O       1.93694      5.64240      4.29876        -0.357069     -0.371101     -0.313565
O      13.12661      5.68321      4.40759        -0.301843      0.056583      0.043065
O       1.86083      5.54764      8.36978         0.012988      0.483099      0.840695
O      13.16451      5.55567      8.44812        -0.718680      0.209947     -0.038646
O       1.80530      9.28691      0.20167         0.334388      0.463482      0.483752
O       2.00439      9.42272     12.57254        -0.264628     -0.447725     -0.898586
O      12.97442      9.30574      0.25099         0.362439     -0.136891     -0.858995
O      13.11826      9.39266     12.50598         0.020316      0.126687     -0.308221
O       1.93594      9.25246      4.33495        -0.338416      0.234204     -0.172671
O      12.99861      9.38315      4.39930         0.461516     -0.037672     -0.986294
O       1.77262      9.32934      8.40041         0.088691     -0.009352     -0.932514
O      13.13101      9.45013      8.49793         0.170631     -0.141246     -1.587571
O       5.49797      1.89797      0.19683         0.119247     -0.122497     -0.601930
O       5.64528      1.72054     12.57163        -0.283868      0.399868     -0.722941
O       5.67210     12.99595      0.22230        -0.208997      0.019198      0.152537
O       5.64676     12.96525     12.58065        -0.057362      0.917096     -0.567291
O       5.59414      1.79819      4.27686         0.083947      0.192536     -1.954352
O       5.51115     13.20158      4.36175         0.518712     -0.484244      0.022200
O       5.66173      1.90619      8.53993        -0.492783     -0.016100      0.002229
O       5.52008     13.08715      8.32346         0.266998      0.169262      0.038393
O       5.56242      5.73620      0.15727         0.103423     -0.552870     -0.424736
O       5.67301      5.72355     12.44390        -0.118737     -0.599852      0.708085
O       5.68326      5.63582      4.32381        -0.174549      0.005704     -1.528698
O       5.58658      5.42615      8.46750         0.163930      0.239721      0.024364
O       5.54803      9.36332      0.29120         0.355291      0.168777     -0.941151
O       5.72075      9.37731     12.43528        -0.546423      0.027957      0.264222
O       5.61835      9.30162      4.40462         0.290429      0.256867     -0.022061
O       5.83959      9.40022      8.45046        -0.816988     -0.126662     -1.183299
O       9.30143      1.70669      0.17409         0.863996      0.423855      0.122875
O       9.48199      1.92700     12.48276        -0.462678     -0.351132     -0.061883
O       9.33612     13.28778      0.24072         0.404487     -0.958372     -0.409296
O       9.29286     13.06618     12.51854         0.106776      0.241136     -1.171562
O       9.31687      1.96337      4.34539         0.265744     -0.358303     -1.074340
O       9.34407     13.15938      4.28513         0.255476      0.000124     -0.173470
O       9.21602      1.71411      8.34525        -0.229965      1.096424      1.553215
O       9.41797     13.20848      8.38893        -0.194377     -0.633017      0.239087
O       9.39206      5.62364      0.21007         0.260147      0.101081     -0.657223
O       9.44776      5.62771     12.42489        -0.882791     -0.242145     -0.392677
O       9.27150      5.59842      4.38035        -0.117607     -0.045748     -0.638555
O       9.33594      5.70295      8.50731        -0.025907     -0.459203     -0.655972
O       9.47699      9.39971      0.22636        -0.360671     -0.040112      0.177531
O       9.26126      9.42866     12.57757         0.670450     -0.257024     -1.909609
O       9.32162      9.25288      4.34484         0.212572      0.802687     -0.412254
O       9.37688      9.37552      8.40111         0.081889     -0.033611      0.495348
O       3.80772      1.60067      2.32311        -1.234984     -0.164659      0.210150
O       3.76530      2.14798     14.59828        -0.194368     -0.443052     -0.489468
O       3.74987     13.26226      2.26883        -0.591644      0.726678     -0.163451
O       3.74384     12.77983     14.66873         0.381724      0.218568     -0.005266
O       0.02951      2.24700      2.08621         0.381542     -0.573467      0.890847
O      14.96668      1.54515     14.62361         1.547434      0.270989      0.138467
O       0.03498     12.77081      2.20326        -0.769556     -0.049338      0.671684
O      15.00639     13.42853     14.33161         0.971443     -0.085557      0.786311
O       3.64337      1.88980      6.50135         0.882868     -0.305081     -0.234148
O       3.73704     13.24243      6.52275        -0.013798     -0.162923     -0.238335
O      14.88773      1.93580      6.34485         0.967253      0.148844      0.486532
O      15.00503     13.05722      6.47684         0.000504     -0.363749     -0.402135
O       3.68367      1.55143     10.64935        -0.371319      0.900305     -0.712840
O       3.71830     13.23374     10.50310         0.200559      0.233871     -0.320827
O      14.95564      2.05327     10.59756         0.253001      1.024434      0.303993
O      15.00284     12.89668     10.49619        -0.264663     -0.212812      0.284260
O       3.76440      5.99681      2.19713        -0.426741     -0.444540      0.436059
O       3.77959      5.42265     14.42106        -1.041739     -0.028226      0.451644
O      14.92028      5.25807      2.32964         1.472098      0.427312     -0.347594
O      15.00393      5.97693     14.60842        -0.633130     -0.766244     -0.018219
O       3.75489      5.76598      6.40096        -0.314356     -0.214536      0.087871
O      15.00253      5.57064      6.32237        -0.069326     -0.281094      0.207921
O       3.71022      5.82168     10.45328        -0.789400      0.237108      0.251172
O      14.97206      5.33284     10.34702        -0.433431     -0.551091      0.956532
O       3.74147      8.99666      2.37503         0.240829      0.258599     -0.487293
O       3.75416      9.55302     14.66192         0.343404      0.347897     -0.086995
O       0.02334      9.50339      2.25944        -1.188370      0.286420      0.681991
O      14.99079      8.92089     14.50548        -0.411528      0.535031      0.368550
O       3.74681      9.18494      6.53690        -0.302524      0.363995     -0.055145
O      15.00045      9.63400      6.32623        -0.235360     -0.617700     -0.026654
O       3.71607      9.14261     10.29884         1.472850     -0.082651      0.468797
O       0.06363      9.66933     10.55743        -1.111289     -0.712427     -0.194302
O       7.51202      2.01384      2.06396        -1.419089      0.623359      0.996411
O       7.49341      1.68853     14.64694         0.275602     -0.428807     -0.354667
O       7.47769     12.76926      2.31176         1.106879     -0.195752      0.166741
O       7.50087     13.26004     14.63752         0.062426      0.492307      0.004893
O       7.44943      2.00678      6.33704        -0.828071      0.068843      0.282788
O       7.48465     13.06697      6.48636         0.221004     -0.227689     -0.411214
O       7.44397      1.89645     10.58297        -1.503276      0.787840      0.314130
O       7.48169     12.91314     10.37129        -0.196306      0.354422      0.149315
O       7.43394      5.28288      2.04011         0.581981     -0.135930      1.034084
O       7.53963      5.75065     14.61798        -0.515856      0.507541     -0.210924
O       7.46972      5.51786      6.40983         0.395557     -0.303127      0.507554
O       7.42598      5.14297     10.50710         0.480004      1.225667     -0.361934
O       7.48199      9.80077      2.17954         0.000948     -0.044455      0.510042
O       7.50475      9.13614     14.61826        -1.059230      0.050655      0.350755
O       7.55548      9.53899      6.40647        -0.180272      0.140585     -0.019477
O       7.51357      9.59201     10.47086         0.767815     -0.573105      0.297726
O      11.24444      1.38989      2.24586         0.038698      0.863005      0.061696
O      11.27723      2.08597     14.69767        -0.456927      0.334002      0.178238
O      11.33244     13.54492      2.18706        -0.829476     -0.716062      0.350766
O      11.24585     12.74549     14.40204        -0.124810      0.146383      0.704600
O      11.13922      1.83846      6.58221         1.482505     -0.157574     -0.502064
O      11.24804     13.35672      6.35462         0.118916     -0.791873      0.004559
O      11.19597      1.63050     10.31525        -0.735955     -0.282994      0.295968
O      11.22258     13.30929     10.45931         0.020231     -0.209331      0.057008
O      11.12726      5.83073      2.41293         0.992249     -0.035951     -0.331130
O      11.21730      5.35679     14.50125         0.840038     -0.311028      0.905146
O      11.19323      5.82909      6.39570         1.404245      0.171706      0.221427
O      11.18441      5.91897     10.46272         0.173500     -0.351084      0.071624
O      11.19623      9.05112      2.29930        -0.052592      0.070794      0.409572
O      11.24410      9.71426     14.54240         0.346521     -0.034521     -0.040977
O      11.24853      9.12602      6.47653         0.585201      0.321239     -0.160927
O      11.29021      8.97459     10.49072        -0.736949      1.065275     -0.118365
O       2.23721      3.71251      2.11857        -0.010831      0.278944      0.995766
O       1.71959      3.74765     14.60638        -0.632636     -0.279557     -0.262544
O       1.69084     14.99266      2.16044        -0.518331      0.596463      0.164848
O       2.33474     14.94133     14.48669        -0.789036      0.893110      0.744624
O      12.83603      3.74956      2.37746        -0.505044     -0.456555     -0.242422
O      13.39449      3.64905     14.54131         0.029357      1.619096      0.163081
O      13.58802      0.02496      2.30954        -0.431130     -1.023483     -0.003616
O      12.92585     14.94719     14.63140        -0.435001     -0.038191      0.252265
O       1.89213      3.75759      6.50561        -0.085868     -0.251031     -0.800613
O       1.81210     14.97209      6.46286        -0.322785      1.674604      0.120321
O      12.99607      3.84621      6.35822        -0.239600     -1.077082      0.339915
O      13.22574     15.00524      6.36355        -0.193809      0.525935     -0.248643
O       2.13467      3.82593     10.61796        -0.159609     -1.267132      0.230499
O       1.61277      0.04995     10.39389         0.280955     -0.397780      0.335447
O      12.76695      3.75146     10.59448         0.721129     -0.090239      0.002828
O      13.51243     14.95690     10.36749        -0.788089      0.262573      0.365473
O       1.57973      7.40613      2.19851        -0.342432      0.546832      0.413772
O       2.07132      7.51419     14.78116         0.404032     -1.331179     -0.322945
O      13.27535      7.43350      2.38352         0.194310      1.073669      0.100594
O      12.66112      7.48259     14.56536         0.741984     -0.130685      0.270551
O       1.70047      7.45106      6.42925        -0.191125      1.062374      0.048033
O      13.33596      7.56065      6.64159        -0.432595      0.343343     -0.480036
O       1.51149      7.47040     10.49523         0.859371      0.703846     -0.390074
O      13.42237      7.45649     10.50013        -0.242393      0.270835     -0.474344
O       2.18404     11.20012      2.17225        -0.691431     -0.588018      0.596353
O       1.60812     11.21400     14.54589        -0.288064      0.074672      0.334935
O      12.77941     11.19345      2.19701         0.264453      0.374427      0.701191
O      13.55871     11.20747     14.58811        -0.464029     -0.394886      0.005116
O       1.92617     11.24007      6.41363         0.358137     -0.004202     -0.002133
O      12.85315     11.25231      6.42737         0.355837      0.275089      0.051907
O       2.02809     11.25684     10.41759         0.529391     -0.207704      0.013186
O      12.95626     11.24303     10.40132        -0.564280      0.256036      0.653613
O       5.32402      3.72067      2.23546         0.063327      0.361339      0.417815
O       5.81719      3.78668     14.49551         0.059431     -1.042574      0.023842
O       5.85097     14.87706      2.19639         0.077357      1.483162      0.225225
O       5.40107     14.96230     14.60712        -0.236698      0.559338      0.369897
O       5.48801      3.74536      6.19086        -0.136506     -0.272077      0.481406
O       5.57486      0.05748      6.35574         0.231761     -0.644534      0.561645
O       5.36471      3.69830     10.63665        -0.213417     -0.596085      0.280427
O       5.77540     14.91286     10.50982         0.062559      0.895376     -0.012483
O       6.03620      7.43944      2.28486        -0.551121      0.757712     -0.018570
O       5.31382      7.53265     14.53037         0.645336     -0.134404      0.176509
O       5.72972      7.50585      6.54876         0.121293     -0.762904     -0.120098
O       5.79119      7.42945     10.48137         0.434476      0.416478     -0.352591
O       5.20405     11.19456      2.34238         1.001943     -0.720747     -0.276913
O       5.79304     11.25262     14.56630         0.551316     -0.909160      0.442797
O       5.45360     11.19881      6.31192         0.006192      1.072613      0.385524
O       5.56398     11.20952     10.35850        -1.051191      0.566577      0.438112
O       9.50701      3.69661      2.02782         0.694499      0.426626      0.857986
O       9.13972      3.76893     14.48160         0.231391     -0.633944      0.378527
O       8.95207     14.97868      2.20170         0.544919     -0.666672      0.976267
O       9.78070     15.00793     14.41665        -0.933375     -0.626733      0.461112
O       9.54589      3.79683      6.42970        -0.409595      0.125725      0.435028
O       9.26923     15.00172      6.52985        -0.500877      0.104363     -1.206197
O       9.54848      3.71825     10.37053         0.305876      0.127224      0.259714
O       9.14098      0.02858     10.41059        -0.062147     -2.026540      0.707074
O       8.90962      7.54142      2.11533         0.509811     -0.675951      0.607617
O       9.54967      7.50123     14.46426         0.448074     -0.396900      0.731005
O       9.22318      7.52368      6.49778        -0.282040     -0.277527     -0.104265
O       9.03669      7.52644     10.47855         0.097626     -0.481211      0.266680
O       9.68352     11.27461      2.26862         0.004446     -0.000266      0.221825
O       9.10604     11.22602     14.50712        -0.156987      1.308623      0.771447
O       9.51103     11.25293      6.46526         0.230521      0.673621     -0.294359
O       9.49316     11.21536     10.45750         0.566965      1.139070      0.030856
