  # total energy = -7868.03696948 
CRSYTAL
PRIMVEC
    15.010000000000000    0.0000000000000000    0.0000000000000000
     0.0000000000000000   15.010000000000000    0.0000000000000000
     0.0000000000000000    0.0000000000000000    16.400000000000000
PRESSURE
16.6425 16.8764 7.57287 -0.12873 0.023066 0.11793
PRIMCOORD
320 1
Pb       3.84940      3.77088      4.31964        -0.581687     -0.492535     -0.570097
Pb       3.78963      3.77157      0.15660        -0.055794     -0.239097     -0.570090
Pb       3.68942      0.07795      4.11872        -0.132103     -0.033088      0.278350
Pb       3.65274      0.00930      0.01093         0.271539     -0.070270     -0.598851
Pb       0.01817      3.69789      4.04952        -0.163812     -0.233088     -0.067439
Pb       0.05790      3.81086     16.38884         0.005008     -0.159515     -0.190264
Pb       0.08927     14.97584      4.06238        -0.365977      0.322772     -0.081546
Pb      14.93235      0.02430      0.00094         0.421933     -0.249593      0.184401
Pb       3.85634      3.73951      8.27954        -0.511549     -0.285867     -0.636716
Pb       3.76449     14.81713      8.30774         0.448068     -0.043260     -0.450660
Pb       0.15678      3.78183      8.27298        -0.485930     -0.261546     -0.576652
Pb       0.09680     14.95010      8.28813        -0.408850     -0.147752     -0.803139
Pb       3.70409      3.78970     12.26484         0.210046     -0.773979      0.237124
Pb       3.75912     14.96512     12.44732         0.353172      0.385437     -0.533472
Pb       0.07443      3.74537     12.27932        -0.121634     -0.054122     -0.110827
Pb       0.01925      0.00284     12.33450        -0.208107      0.396147     -0.428475
Pb       3.58765      7.45022      4.13493         0.547803      0.433405     -0.392467
Pb       3.69981      7.37909      0.16850        -0.125884      0.571674     -0.645621
Pb      14.83874      7.46716      4.09196         0.067470      0.214442      0.162745
Pb      14.90747      7.55231     16.39952         0.765001     -0.139308     -0.284191
Pb       3.72553      7.46587      8.17935         0.241845      0.127803     -0.407789
Pb      14.95004      7.46136      8.24472        -0.283886      0.334652     -0.946066
Pb       3.74828      7.54991     12.31765         0.205631     -0.077012      0.239768
Pb       0.05683      7.43206     12.34835        -0.434577      0.150957      0.093775
Pb       3.57059     11.38902      4.10812         0.661217     -1.082531      0.317345
Pb       3.68649     11.22899     16.33110        -0.202267     -0.139590      0.257275
Pb      14.90485     11.32694      4.08170         0.104429     -0.249981     -0.307956
Pb      14.87255     11.26378     16.38921         0.029323     -0.069658      0.023435
Pb       3.68125     11.18043      8.32061         0.108358      0.472045     -0.306523
Pb      14.93101     11.16957      8.29989         0.072744      0.395963     -0.627366
Pb       3.68355     11.30794     12.37538         0.357249     -0.287226     -0.453866
Pb      14.97310     11.28205     12.35477        -0.378279     -0.755317     -0.541898
Pb       7.56218      3.61378      4.22257        -0.463605      0.363855     -0.349366
Pb       7.53915      3.77770      0.01734        -0.167199     -0.205426      0.247163
Pb       7.48429      0.02611      4.19864         0.046809     -0.285093      0.217416
Pb       7.47339      0.10012      0.06927        -0.310564     -0.429630     -0.658799
Pb       7.56771      3.70383      8.23564        -0.013158     -0.026574     -0.387777
Pb       7.57234     14.88448      8.31386        -0.778991      0.032237     -0.691259
Pb       7.59712      3.70084     12.27294        -0.354143     -0.337326     -0.152748
Pb       7.57366     14.94576     12.45790        -0.554447      0.126229     -0.258038
Pb       7.36295      7.55905      4.14232        -0.410973     -0.159665     -0.196360
Pb       7.47976      7.52491      0.09504         0.125089     -0.274383     -0.366872
Pb       7.43767      7.54522      8.30469         0.170769     -0.157251     -0.695317
Pb       7.50043      7.39686     12.45950         0.442185      0.375529     -0.275326
Pb       7.36731     11.33568      4.07708         0.388096     -0.367556      0.370370
Pb       7.51686     11.24320      0.06025        -0.092977     -0.095873     -0.142815
Pb       7.34694     11.16347      8.34769         0.520321      0.380020     -0.800097
Pb       7.48944     11.13782     12.44430         0.160208      0.297397      0.156966
Pb      11.21881      3.71165      4.11564         0.343502     -0.353014     -0.153979
Pb      11.23529      3.74321     16.39940        -0.111822     -0.107806      0.048010
Pb      11.22586      0.06774      4.18348         0.680094     -0.001687     -0.257726
Pb      11.14679      0.03155      0.09920         0.312919     -0.105930     -0.382745
Pb      11.31038      3.78463      8.17344         0.042115     -0.278066     -0.320277
Pb      11.24166     14.90699      8.29015         0.311946     -0.226587     -0.724121
Pb      11.33836      3.75462     12.29181         0.106514     -0.332265     -0.020598
Pb      11.30511      0.08772     12.28525        -0.473980     -0.559719     -0.136462
Pb      11.16336      7.45835      4.14403         0.687445      0.031993     -0.236759
Pb      11.19383      7.53366      0.09844        -0.118646     -0.188182     -0.671178
Pb      11.17809      7.50863      8.20143         0.361470      0.070524     -0.428020
Pb      11.37717      7.46458     12.31601        -0.525958      0.248369      0.002027
Pb      11.20289     11.26132      4.15434         0.292247      0.517886     -0.226090
Pb      11.24226     11.18798      0.04922         0.299064      0.568912     -0.589012
Pb      11.08776     11.08890      8.27161         0.199365      0.647766     -0.428517
Pb      11.29182     11.23990     12.28930        -0.213241     -0.141395     -0.223642
Ti       1.88588      1.89883      2.07861         0.171576      0.149246     -0.305348
Ti       1.89143      1.89511     14.40872         0.819750      0.360238      0.177337
Ti       1.85856     13.10086      2.00541        -0.848483     -0.024483     -0.255425
Ti       1.76371     13.11031     14.31962         0.734360      0.576115      1.046771
Ti      13.14976      1.85111      1.96251        -0.818707      0.368720      0.899391
Ti      13.18391      1.83206     14.35899        -0.245875      0.564370      1.464567
Ti      13.06477     13.16304      1.99541         0.606439     -0.126442      0.181626
Ti      13.09090     13.17728     14.24710        -1.061374     -1.648970      1.039373
Ti       1.85532      1.82785      6.26795         0.219071      0.043154     -0.900315
Ti       1.87244     13.06220      6.20408         0.170666      0.545698      0.335028
Ti      13.20181      1.85810      6.14785        -0.880374      0.315972      0.145792
Ti      13.14471     13.16089      6.12422        -0.513528     -0.216836      0.495005
Ti       1.89188      1.77862     10.26983         0.244342      1.315041      0.503012
Ti       1.78105     13.13018     10.34029         1.326455     -1.433217     -1.069053
Ti      13.11464      1.79544     10.17394         0.734179      0.658604      0.132449
Ti      13.11119     13.07579     10.19868        -0.692343     -0.964931     -0.132279
Ti       1.79961      5.63176      2.09617         0.479042     -0.258999     -0.102395
Ti       1.91201      5.65441     14.40529        -0.170113      0.118431      0.073731
Ti      13.08955      5.56762      2.02398        -0.060942      0.100785      0.518685
Ti      13.10569      5.58638     14.41910         0.862337      0.034758     -0.743350
Ti       1.80420      5.64626      6.08944         0.531855     -1.322412      0.310996
Ti      13.12390      5.56580      6.08890        -0.113438      0.984116      0.660844
Ti       1.95935      5.64754     10.28299        -0.590375     -0.962992      0.178084
Ti      13.16908      5.54597     10.23411        -0.844281      0.695909      1.062293
Ti       1.68282      9.36018      2.06177         1.281598      0.515139      0.458566
Ti       1.87844      9.39280     14.22301        -0.122542     -1.381876      1.320309
Ti      13.01573      9.36914      2.13397         0.942242      0.148972     -0.278767
Ti      13.14263      9.34229     14.37530         0.109442      0.748590     -0.469051
Ti       1.79259      9.37517      6.09408        -0.369037     -0.360632      0.425686
Ti      13.07249      9.41832      6.18730         0.496458     -1.201676      0.214361
Ti       1.80610      9.32500     10.20148         0.298886      1.305259      0.214006
Ti      13.12287      9.32809     10.21672        -0.091951      0.522496      0.986792
Ti       5.58791      1.77153      2.07014        -0.029731      1.579500     -0.242148
Ti       5.62485      1.92856     14.29383        -0.223482     -0.619513      0.538971
Ti       5.62392     13.12047      2.12643        -0.708756     -0.365151     -1.024115
Ti       5.60366     13.08961     14.43037         0.692230      1.018340     -0.444103
Ti       5.64905      1.75930      6.27669        -0.378310      0.040213      1.163942
Ti       5.67448     13.08887      6.15180        -0.623979      0.382677      1.185901
Ti       5.64648      1.81353     10.20072         0.371745     -1.266082      0.948410
Ti       5.66775     13.04827     10.43303        -1.402209      1.321373     -1.154378
Ti       5.63039      5.55323      2.11059        -0.464157     -0.385485     -0.078087
Ti       5.63185      5.62813     14.40050         0.054802     -0.198926     -0.070989
Ti       5.59015      5.52968      6.21322         0.392197      0.655355     -0.417831
Ti       5.67373      5.56988     10.29731         0.409031      0.295475     -0.153315
Ti       5.48538      9.40073      2.08827         0.108467     -0.626224      0.310623
Ti       5.58720      9.35769     14.47619         0.027932     -0.092727     -0.144707
Ti       5.57227      9.35325      6.19223         0.109105      0.116167     -0.310738
Ti       5.62076      9.33944     10.39298        -0.630629     -0.654514     -0.337667
Ti       9.31237      1.81054      2.17780         1.094672      1.582868     -0.756181
Ti       9.43148      1.84479     14.36034        -0.814060      0.015932     -0.793466
Ti       9.35030     13.15716      2.03108        -0.016281     -0.835043      0.748551
Ti       9.36107     13.12322     14.42462         0.520335     -0.150049     -0.034281
Ti       9.43569      1.84676      6.25303        -0.640285      0.065103     -0.224923
Ti       9.45241     13.14025      6.10095        -0.660765     -0.985161      1.118356
Ti       9.36936      1.77664     10.28765        -0.421850      0.706725      0.024259
Ti       9.33064     13.08034     10.22424         0.996302     -0.760261      0.573447
Ti       9.34368      5.63140      2.11974         0.035497     -0.686734     -0.726284
Ti       9.39259      5.53928     14.30980         0.008906      1.315475      1.618667
Ti       9.36826      5.65171      6.12686        -0.505985     -0.650811      1.614729
Ti       9.41215      5.59091     10.15860        -0.333464      0.049998      0.765281
Ti       9.31336      9.40827      2.14075        -0.679151      0.247023     -0.741823
Ti       9.45097      9.38041     14.41623        -0.476710     -0.370104     -0.360913
Ti       9.32070      9.37152      6.06914        -0.086944      0.786719      1.859923
Ti       9.33910      9.31932     10.40404         0.927914      0.310905     -0.435935
O       1.94672      1.92629      0.20705         0.020595     -0.155088      0.786042
O       1.88124      1.76728     12.58700         0.107601      0.345682     -1.039094
O       1.83110     13.01739      0.17936         0.051769      0.222502     -0.544236
O       1.82409     13.12269     12.49781        -0.191555      0.195539     -0.371699
O      13.12359      1.84815      0.13238         0.171532     -0.220979      0.428003
O      13.15017      1.82353     12.60436        -0.106526     -0.096651     -1.798198
O      13.19836     13.23062      0.19541         0.111795     -0.204311     -0.479334
O      13.13381     13.08736     12.41950        -0.082888      0.197432      0.231801
O       1.81965      1.79479      4.35144        -0.032712      0.012858      0.188928
O       1.88330     13.08690      4.32142        -0.524932      0.214424     -0.018017
O      13.17280      1.86711      4.30737        -0.053678      0.125147     -0.014992
O      12.99015     13.22048      4.26676         0.434975     -0.613450      0.178348
O       1.76716      1.91790      8.48367         0.050860     -0.212246     -0.719729
O       1.91305     13.10696      8.44691         0.064518     -0.275681      0.316635
O      13.26419      1.87355      8.38013        -0.621751     -0.014211      0.799978
O      13.08385     13.08440      8.38656         0.043375      0.314448      0.153887
O       1.81510      5.66524      0.24401        -0.055236     -0.087024     -0.241148
O       1.89764      5.62525     12.57315         0.266661     -0.010809     -1.100944
O      13.21856      5.56895      0.21499        -0.407396      0.024342     -0.820469
O      13.01702      5.76329     12.53902         0.607924     -0.945594      0.239877
O       1.96917      5.57923      4.26840        -0.432305      0.178028     -0.046127
O      13.07093      5.57475      4.28919         0.207960      0.013121     -0.322871
O       1.98380      5.60608      8.47835        -0.423869      0.163353     -0.258866
O      13.09822      5.56519      8.45558        -0.044920      0.169219     -0.167027
O       1.74482      9.33332      0.28781         0.215106      0.154047     -0.752830
O       1.89050      9.40503     12.42646         0.027750     -0.398141     -0.393639
O      12.95823      9.37984      0.27499         0.765042     -0.321360     -0.158626
O      13.16179      9.39409     12.54168        -0.276181     -0.302372      0.031353
O       1.68428      9.42710      4.27953         0.336768     -0.236416      0.116506
O      13.05387      9.39837      4.35115         0.074716      0.008537     -0.811040
O       1.77096      9.36767      8.34525         0.477961     -0.328534      0.775871
O      13.22115      9.43338      8.43261        -0.419549     -0.537662     -0.936488
O       5.60512      1.84791      0.25375        -0.131834     -0.324171     -0.093596
O       5.58360      1.84653     12.52663        -0.248420      0.096045     -0.634928
O       5.58408     13.09485      0.25491        -0.101247     -0.157607     -0.063346
O       5.73767     12.96534     12.52394        -0.485439      0.545947      0.097401
O       5.51779      1.87050      4.48995         0.580781     -0.409130     -1.859089
O       5.54553     13.17716      4.31889         0.171718     -0.267354     -0.255813
O       5.76249      1.80808      8.38214        -0.142977      0.311558      0.719383
O       5.62460     13.12068      8.44117         0.100538     -0.526857      1.114749
O       5.65301      5.62729      0.23762        -0.113416      0.087763     -0.117105
O       5.87197      5.71290     12.52417        -1.214639     -0.601411      0.289514
O       5.55161      5.42798      4.32397         0.340629      0.633890     -0.274973
O       5.60032      5.56998      8.44606        -0.100247      0.140450      0.220258
O       5.61257      9.41204      0.26476        -0.156874     -0.066684     -0.553103
O       5.54455      9.32694     12.62613         0.183589     -0.003239     -1.035481
O       5.71496      9.47015      4.39967        -0.327093     -0.667035     -0.747485
O       5.71409      9.26319      8.51799        -0.254559      0.338134     -0.314888
O       9.27663      1.78843      0.26807         0.327592      0.402163     -0.138499
O       9.46573      1.78948     12.41181         0.033558      0.234050      1.538556
O       9.20401     13.13777      0.23283         0.246617      0.149692     -0.240425
O       9.40001     13.27225     12.61596         0.162327     -0.627429     -0.463383
O       9.35575      1.85296      4.28873        -0.209993     -0.263618      0.432078
O       9.41297     13.11678      4.30341         0.166564      0.288121     -0.697913
O       9.25164      1.85721      8.44720         0.571559     -0.279839     -0.962810
O       9.39022     13.06220      8.40768        -0.129273      0.351128      0.084412
O       9.35841      5.48118      0.29085         0.244750      0.302653     -0.131539
O       9.33204      5.53341     12.54684         0.141989      0.013397     -1.079885
O       9.37068      5.75858      4.34636        -0.406225     -0.426881     -1.415793
O       9.54413      5.51184      8.33692        -0.638247      0.554900      0.389469
O       9.42244      9.54516      0.25942        -0.104065     -0.758174     -0.011692
O       9.50396      9.45629     12.58865        -0.268049     -0.322901     -0.301779
O       9.34208      9.29431      4.27609        -0.009077      0.131052     -0.318048
O       9.34932      9.28933      8.55387        -0.184607      0.166442     -0.145852
O       3.76602      2.12504      2.42326        -0.431359     -0.389606     -0.303276
O       3.75793      1.57703     14.58996         0.423187     -0.059118      0.081169
O       3.66441     12.76759      2.32081         0.498407      0.599372     -0.537030
O       3.73662     13.29089     14.47645        -0.599825      0.267896      0.331928
O      15.00875      1.71682      2.27012         0.038363     -0.409959      0.060648
O       0.06166      2.06522     14.65023        -1.071125     -0.003376     -0.016110
O      14.96527     13.40869      2.21998         0.559038     -0.265295      0.550455
O      14.94043     12.75563     14.48726         1.088910      0.917337      0.158571
O       3.65759      1.88577      6.51497         1.402755      0.065180      0.154306
O       3.75391     13.02963      6.40575        -0.489040     -0.523588      0.087215
O      14.97020      1.67245      6.41322         0.890953      0.202116      0.175956
O      14.96926     13.25353      6.47589         0.252617     -0.283123     -0.444251
O       3.79915      2.03704     10.41627        -0.987279      0.209175      0.189397
O       3.75952     12.90637     10.58533        -0.477369     -0.172285     -0.175038
O       0.02221      1.65741     10.57026        -0.755609      0.109956      0.112354
O      14.97629     13.38660     10.38171         0.078665     -0.134605      0.587172
O       3.70454      5.31108      2.16725         0.308980      0.529953      0.498851
O       3.76430      5.88361     14.63570         0.551795      0.263636      0.001210
O      14.93305      5.75402      2.35485         0.651561      0.322683      0.214806
O       0.07274      5.45378     14.49695        -1.490364     -0.682826      0.485835
O       3.71625      5.41947      6.39519        -0.123084      0.362083      0.324832
O      14.98980      5.84192      6.42077         0.294104     -0.622009      0.077728
O       3.80988      5.33950     10.49310        -0.634603      0.243843      0.341074
O      14.98761      5.78434     10.53965         0.679903      0.019932     -0.137815
O       3.64915      9.59958      2.37206         0.003952     -0.073641     -0.143677
O       3.70139      9.07182     14.67109         0.462899      0.343714      0.113130
O      14.89194      9.04841      2.34937        -0.407719      0.347091     -0.116727
O       0.03554      9.51382     14.53223        -0.948195      0.416047      0.485459
O       3.71228      9.45178      6.40786        -0.019516     -0.043944      0.223297
O      14.96023      9.22324      6.44278         0.148911     -0.280026     -0.080457
O       3.70026      9.64810     10.45523         0.551947     -0.225770     -0.042275
O      14.99519      9.15190     10.47018         0.388907     -0.468541      0.268583
O       7.48274      1.52954      2.28892        -0.797728     -0.157890      0.615907
O       7.48862      2.13449     14.41422         1.001617      0.108905      0.608895
O       7.42941     13.39114      2.37107         0.627253      0.023418      0.033887
O       7.46104     12.83770     14.57080         0.894450     -0.222497      0.244280
O       7.52078      1.54702      6.39318         0.104459      0.567328     -0.312715
O       7.52930     13.25551      6.34064         0.230185      0.434793     -0.055153
O       7.54973      1.49902     10.60537        -0.773356      0.345116     -0.316274
O       7.50196     13.30986     10.50883         0.403539      0.412450      0.030040
O       7.45846      5.78987      2.18929         0.629161      0.630264      0.837873
O       7.53970      5.38726     14.66135        -0.221824      0.090474     -0.165327
O       7.43562      5.70766      6.40887         1.544131     -0.139505      0.011445
O       7.50038      5.91045     10.44758         0.517786     -0.232348     -0.133609
O       7.45847      9.22287      2.25956        -0.324782     -0.627554      0.349049
O       7.54380      9.62379     14.56651        -0.588695     -0.146989      0.379259
O       7.50110      9.18154      6.39543         0.320497     -0.121135      0.204574
O       7.49952      9.05520     10.58942        -0.678875      0.016803      0.254861
O      11.25896      2.11700      2.31244        -0.149181     -0.289037     -0.305747
O      11.26211      1.65579     14.69242         0.210424     -0.364370     -0.348067
O      11.22013     12.84955      2.13200        -0.708207      0.038103      0.423175
O      11.27584     13.31566     14.78169        -0.284610      0.368047     -0.613375
O      11.25126      2.15714      6.33003         0.521691     -0.539317      0.360414
O      11.28553     12.98235      6.40018        -0.440464     -0.079632      0.077642
O      11.22442      2.05553     10.47441         1.447769     -0.044475     -0.043421
O      11.23588     12.78190     10.40429         0.071143      0.397488      0.362661
O      11.22807      5.36368      2.35699        -0.421611      0.211280     -0.241600
O      11.29131      5.81277     14.67631        -0.682010     -0.395294      0.100058
O      11.25408      5.44652      6.32470        -0.299500     -0.119096      0.213573
O      11.19254      5.28639     10.57223         0.855687      0.543035     -0.512616
O      11.20691      9.58416      2.35593        -0.545118      0.238711      0.290517
O      11.30960      9.15080     14.63846        -0.399707     -0.170360      0.203701
O      11.21943      9.43855      6.49462        -0.836526     -0.084018     -0.197400
O      11.29629      9.61399     10.44877        -0.999975      0.150728      0.345264
O       1.64260      3.75499      2.27863        -0.301698     -0.332490      0.040651
O       2.18771      3.76145     14.60742        -0.279989     -0.147680     -0.007407
O       2.05406      0.01383      2.21879         0.333416     -0.639508      0.269908
O       1.72725      0.00540     14.66244        -0.628177     -1.611971     -0.067756
O      13.33511      3.72846      2.21961         0.064458     -0.361368      0.264888
O      12.96245      3.68426     14.52870        -0.050256      0.879289      0.273209
O      12.91570      0.00022      2.23094        -0.389578      0.588813      0.190477
O      13.42329     14.95616     14.49038         0.236488      0.515548      0.241745
O       1.78256      3.72227      6.37654        -0.831609      0.300673      0.335247
O       1.89696     14.93595      6.50089         0.157159      0.084081     -0.096496
O      13.31752      3.78128      6.46131         0.213672     -0.777216     -0.030755
O      12.92850      0.01756      6.40832        -0.257467     -0.236626      0.004509
O       1.72029      3.74162     10.52007        -0.125190     -0.000508      0.388013
O       2.02125     14.96906     10.45909         0.503352      0.253050      0.434431
O      13.33154      3.69806     10.55803        -0.109324     -0.107895      0.079802
O      12.98672     14.95854     10.46843        -0.719297      0.663990      0.133491
O       1.98685      7.48768      2.34064         0.397844     -0.287851      0.262667
O       1.62848      7.53829     14.60007         0.053547     -0.602392     -0.073379
O      12.88059      7.44621      2.27780        -0.346120      0.484031      0.263927
O      13.35437      7.43756     14.61603         0.006540      0.908506      0.137705
O       1.97883      7.43296      6.32706         0.498156      1.348911      0.271286
O      13.00114      7.48913      6.41679        -0.322464     -0.369455      0.153888
O       2.06621      7.49279     10.54288         0.251792     -0.279476     -0.136233
O      12.86871      7.51349     10.47947         0.162958     -1.538461     -0.192127
O       1.46903     11.22829      2.18747        -0.002776      0.646637      0.709454
O       2.07958     11.20645     14.42833         0.258285      1.407384      0.700918
O      13.32671     11.26770      2.19328         0.199966     -0.447802      0.562838
O      12.96081     11.25752     14.57428        -0.291033     -0.482287      0.226764
O       1.67039     11.18807      6.35417         0.247817      1.012255      0.254299
O      13.15133     11.22442      6.40896         0.516370      0.999099     -0.320241
O       1.59822     11.25006     10.43993         0.014971     -0.218084      0.110532
O      13.39366     11.20635     10.45624         0.275719      0.747862      0.277831
O       5.88674      3.65993      2.20217         0.050032      0.295605      0.548427
O       5.31569      3.79456     14.59231         0.323730     -0.426672     -0.006652
O       5.27639     14.93906      2.30681        -0.112163      0.511485      0.158316
O       5.94695      0.00146     14.56037        -0.605854     -0.493426      0.013759
O       5.69049      3.67251      6.47143         0.170060     -0.226580      0.168321
O       5.50046     14.94846      6.57855        -0.181945     -0.397641     -0.563863
O       5.85848      3.64184     10.56556         0.277389      1.414289     -0.278409
O       5.36699     14.97023     10.54179         0.303554     -0.252865      0.009343
O       5.35359      7.48422      2.30860         0.201551     -0.111765      0.514722
O       5.83425      7.49944     14.63807         0.505771     -0.026400      0.282480
O       5.53866      7.41971      6.34876        -0.543999      0.848676      0.266228
O       5.27699      7.47539     10.47707         0.287249     -0.345961      0.140920
O       5.80852     11.21691      2.36322        -0.087210      0.949924     -0.096018
O       5.29368     11.22509     14.51100         0.262234     -0.099529      0.733621
O       5.80988     11.23094      6.43961        -0.260798     -0.180705      0.312168
O       5.90697     11.19650     10.45924        -0.017209     -0.407945      0.226723
O       9.07560      3.71333      2.31477         0.088217      0.251130      0.513424
O       9.64315      3.69451     14.55329         0.027431      0.172942      0.315275
O       9.62414     14.99973      2.30526         0.042457     -0.726225      0.189945
O       9.15126      0.01404     14.61085        -0.136475     -0.152461      0.357963
O       9.22074      3.67978      6.31800        -0.620049      1.366675      0.127398
O       9.65887     14.99847      6.38754        -0.106470     -0.171325      0.146455
O       9.05781      3.71162     10.30105         0.020049      0.323257      0.792698
O       9.67131     14.92714     10.42773         0.163859      0.020364      0.022348
O       9.53000      7.54176      2.17035         0.246553     -0.882817      0.358143
O       9.25937      7.45812     14.61697        -0.350232      0.290570      0.324180
O       9.54318      7.47633      6.46480        -0.297384      0.360175     -0.303359
O       9.60925      7.47652     10.56635         0.289336     -0.878564     -0.089367
O       9.03105     11.29159      2.31865         0.473390      0.118232      0.184340
O       9.67054     11.26389     14.62828        -0.294031      0.128724     -0.161515
O       9.27253     11.26297      6.47925         0.034268     -1.160809     -0.603485
O       9.08876     11.21821     10.59775         0.224004      0.133601     -0.148993
