  # total energy = -7877.28156825 
CRSYTAL
PRIMVEC
    15.2000000000000000    0.0000000000000000    0.0000000000000000
     0.0000000000000000   15.2000000000000000    0.0000000000000000
     0.0000000000000000    0.0000000000000000    17.000000000000000
PRESSURE
8.69255 8.44865 1.50241 0.258901 -0.23431 0.015965
PRIMCOORD
320 1
Pb       3.62930      3.83865      4.31831         0.772802     -0.095752     -0.180254
Pb       3.93472      3.88787     16.99041        -0.096258     -0.056122     -0.180836
Pb       3.64977      0.18078      4.28739         0.523742     -0.251132      0.249212
Pb       3.84243     15.17100     16.91044        -0.098439     -0.077062      0.615597
Pb       0.08095      3.85666      4.21001        -0.598455      0.177099      0.087804
Pb       0.17875      3.94928     16.94420        -0.627132     -0.816620     -0.021790
Pb      15.14635      0.19149      4.48885         0.110248     -0.467621     -0.341667
Pb       0.05920     15.10507     16.96539        -0.156379      0.063091     -0.029751
Pb       3.91841      3.87419      8.34063        -0.114465     -0.125788      0.647466
Pb       3.82857     15.04677      8.69771        -0.056137      0.160086     -0.683245
Pb       0.14564      3.60806      8.65025        -0.353034      0.490936     -0.552583
Pb      14.93408     15.15833      8.47044         0.659959      0.022543      0.243945
Pb       3.85754      3.58413     12.54419        -0.359920      1.480390      0.673857
Pb       3.81763      0.08874     12.86221        -0.156410     -0.565023     -0.709734
Pb      15.13730      3.85829     12.67772         0.081833     -0.119755      0.086437
Pb       0.07047      0.00189     12.86191        -0.406148      0.138838     -0.508357
Pb       3.71507      7.63481      4.33752         0.167980     -0.219443      0.157599
Pb       3.71462      7.63746     16.95683         0.325206     -0.301061     -0.049602
Pb      15.08980      7.77739      4.36161        -0.130052     -0.532278     -0.493561
Pb      15.05132      7.45353     16.89412         0.762330      0.404796      0.203369
Pb       3.85072      7.58231      8.34131        -0.022088     -0.225233      0.411478
Pb      15.05266      7.52889      8.49213         0.371930     -0.121176     -0.196538
Pb       3.65269      7.48052     12.68720         0.725179     -0.033525     -0.037392
Pb       0.03236      7.48388     12.82195        -0.300929     -0.241598     -0.539430
Pb       3.56032     11.43121      4.33814         0.298684      0.110109     -0.011168
Pb       4.03817     11.41808      0.19033        -0.484344      0.027202     -0.208076
Pb       0.01440     11.44338      4.19788        -0.766257      0.429234      0.091450
Pb       0.11702     11.32324     16.83212        -0.656625      0.231947      1.167475
Pb       3.65079     11.37267      8.57694         0.424651      0.249720     -0.801839
Pb      15.15166     11.34410      8.62735        -0.277358      0.675848     -0.712273
Pb       3.72971     11.25826     12.65692        -0.070374      0.304419      0.440229
Pb      15.11670     11.02889     12.98668         0.235105      1.147754     -0.764661
Pb       7.55369      3.83593      4.28233        -0.172584     -0.228042     -0.301157
Pb       7.61752      3.79062      0.12500        -0.447277     -0.154562     -0.355141
Pb       7.56223     15.08852      4.23521        -0.077301      0.429956     -0.491731
Pb       7.69437     15.09562     16.95593        -0.563984      0.213742      0.793591
Pb       7.68452      3.56507      8.45333        -0.114701      1.378185     -0.149001
Pb       7.65079      0.06496      8.55532        -0.361081     -0.859622     -0.272382
Pb       7.71432      3.70775     12.77076        -0.628442      0.928088      0.035319
Pb       7.58314     15.11162     12.84208        -0.056999      0.054959     -0.750391
Pb       7.70001      7.45021      4.06894        -0.153632      0.775425      0.666459
Pb       7.69480      7.70593      0.12134        -0.474194     -0.112656     -0.337086
Pb       7.55528      7.62747      8.29425        -0.154916     -0.272713      0.830345
Pb       7.50397      7.66729     12.63223        -0.239708     -0.858125      0.331855
Pb       7.47935     11.36148      4.31341         0.064401     -0.033345     -0.598740
Pb       7.52016     11.46342     16.98230        -0.099885     -0.160339      0.244544
Pb       7.63044     11.46956      8.65669        -0.350474      0.080931     -0.802171
Pb       7.66196     11.37545     12.70216        -0.371053     -0.174959      0.342047
Pb      11.33740      4.03360      4.08594         0.678011     -1.253459      0.568495
Pb      11.29254      3.61611     16.94453         0.679156      0.781465      0.303130
Pb      11.49203     15.15946      4.15568        -0.268517     -0.241744      0.144241
Pb      11.40720      0.01719     16.98627         0.342598     -0.444665     -0.258618
Pb      11.45645      3.78423      8.47239        -0.406241      0.306595     -0.279766
Pb      11.35138      0.03064      8.47714         0.079298     -0.468560     -0.145345
Pb      11.27369      3.59084     12.75303         0.457102      1.049755      0.416123
Pb      11.38933      0.02455     12.63230         0.260931     -0.511187      0.146335
Pb      11.46677      7.46016      4.11009         0.158913      1.034087      0.187821
Pb      11.41398      7.60272     16.93768        -0.166002     -0.417630      0.106513
Pb      11.32046      7.52297      8.69427        -0.169908      0.287894     -0.902983
Pb      11.39998      7.67531     12.94484        -0.432298     -0.773596     -0.675676
Pb      11.36057     11.30725      4.19753         0.575831      0.203200      0.064297
Pb      11.47493     11.42280     16.72644        -0.252400      0.083145      0.872266
Pb      11.35488     11.36723      8.51674        -0.017205      0.343587     -0.062202
Pb      11.25766     11.14668     12.48476         0.404344      1.513912      1.090170
Ti       1.90916      1.92575      2.18025        -0.326546      0.763719     -1.219622
Ti       1.96583      1.85590     15.02152        -0.494372      0.703455     -0.069977
Ti       1.80109     13.40216      2.36067        -0.652521     -0.524884      0.646577
Ti       1.89500     13.25672     14.91853        -0.193980      0.477715      0.987404
Ti      13.35146      1.86109      2.19544        -0.278148      0.710486      0.312954
Ti      13.36868      1.88516     15.03893        -0.174779      0.000149     -0.764499
Ti      13.20281     13.26794      2.14477         0.946579     -0.857377     -0.067698
Ti      13.25345     13.25706     14.80320        -0.218467      0.980503     -0.063339
Ti       1.91809      1.88886      6.65009        -0.483636     -0.877020      0.439150
Ti       1.74089     13.31435      6.59982         0.498772      0.583314     -1.306178
Ti      13.26465      2.01489      6.41748         0.284978     -0.242666     -0.997064
Ti      13.16919     13.29814      6.51411        -0.080538     -0.093145     -0.499673
Ti       1.86625      1.83330     10.78051        -0.490339     -0.209001     -1.670682
Ti       1.76800     13.25976     10.75731        -0.312561      0.652219     -0.749154
Ti      13.28815      1.97415     10.79249         0.339811     -0.974967      0.860116
Ti      13.23730     13.34079     10.79902        -0.190541     -0.479431     -0.218740
Ti       1.96879      5.79277      2.20776        -1.349105     -0.710405      0.642026
Ti       1.92096      5.67822     14.85098         0.625617     -1.075186      0.173765
Ti      13.40565      5.67325      2.16784         0.563121      0.033854     -1.122077
Ti      13.24508      5.61686     14.92762         0.051606     -0.652591      0.584058
Ti       1.83297      5.68189      6.53335         0.265694      0.060948     -0.286571
Ti      13.26029      5.75675      6.54326        -0.323836     -0.897459     -0.324044
Ti       1.86713      5.71455     10.68013         0.009452     -0.392078     -0.205148
Ti      13.21282      5.73759     10.74105        -0.150281      0.284421     -0.022752
Ti       1.90994      9.47548      2.28895        -0.500674      1.021484     -1.720645
Ti       1.94969      9.54734     15.01606         0.193987     -1.703190     -0.493574
Ti      13.35129      9.47896      2.10978        -0.127588      0.782157      0.839032
Ti      13.25730      9.41432     14.91290        -0.088075      1.205944      0.569131
Ti       1.79817      9.46940      6.54151         0.842429      0.496356      0.084190
Ti      13.17103      9.51396      6.58746        -0.541507      0.332079     -1.606517
Ti       1.79159      9.51064     10.68954         0.442831     -0.638843     -0.565926
Ti      13.26740      9.48138     10.71424        -0.690961     -0.154793     -0.499986
Ti       5.71935      1.92419      2.29398        -0.073537      0.045067      0.470743
Ti       5.72823      1.92077     14.94822         0.081089      0.164280      0.115399
Ti       5.56467     13.31582      2.38103         1.594947     -0.066165     -1.205381
Ti       5.59952     13.29566     14.95510         0.475835     -1.295803      0.070156
Ti       5.73525      1.80184      6.56066        -0.899021     -0.050132     -1.437747
Ti       5.63706     13.24504      6.46808        -0.653096      0.489533      0.521739
Ti       5.75606      1.83915     10.78141        -0.612682      0.512659     -0.748972
Ti       5.58184     13.21692     10.86607         0.539972      1.302275     -0.971900
Ti       5.67344      5.72046      2.30072         0.227869     -1.137808     -1.527329
Ti       5.74481      5.66742     14.91572        -1.063446      0.039005     -1.110019
Ti       5.76355      5.67079      6.45662        -1.251356      0.453981     -1.094766
Ti       5.64045      5.65659     10.74679         0.557920      0.561773     -1.525126
Ti       5.68472      9.45931      2.32771         0.319993      1.091970     -0.930376
Ti       5.66313      9.40081     15.02740         0.549619      0.534716     -0.007091
Ti       5.64640      9.51205      6.39224        -0.198422     -0.147011     -0.747062
Ti       5.53327      9.48815     10.72842         0.533846     -2.072740     -1.543286
Ti       9.54207      1.89448      2.30029        -1.107126     -0.757611     -0.391858
Ti       9.48051      1.83836     15.01882         0.203994      1.269136     -0.267324
Ti       9.42280     13.21291      2.19915        -0.269074      1.171641     -0.241851
Ti       9.45198     13.28451     14.93236         0.854750     -0.819479     -0.562112
Ti       9.55937      1.91329      6.34830         0.164426      0.296758      0.072454
Ti       9.39330     13.34198      6.45368         1.191478     -0.114487     -0.133649
Ti       9.47694      1.91918     10.73672         0.129968     -0.545399     -0.330714
Ti       9.41081     13.29626     10.79747         0.696314      0.397028     -0.343154
Ti       9.55168      5.68060      2.10479         0.034636      0.013803      0.256234
Ti       9.46308      5.68285     14.99833         0.248540      0.180451     -1.078263
Ti       9.49628      5.79530      6.48103         0.133339     -0.639577      0.296466
Ti       9.39413      5.70727     10.63426        -0.292129     -0.697300     -0.178064
Ti       9.57807      9.50137      2.15192        -0.634322      0.247796     -0.351479
Ti       9.46149      9.46053     15.00305        -0.334724      0.189138     -0.597636
Ti       9.37018      9.63984      6.44861         1.565815     -1.375683      0.516646
Ti       9.35174      9.37704     10.67800         0.512815      0.518315     -0.981550
O       1.85261      1.79015      0.36002         0.131477      0.261943      0.671037
O       1.96803      1.74316     13.19467         0.131976      0.194335     -0.383438
O       1.85333     13.42380      0.62841        -0.058361      0.022073     -1.510282
O       1.82928     13.24608     13.19645         0.268676      0.061439     -1.315328
O      13.32591      1.88196      0.41490         0.074961     -0.238428     -0.420182
O      13.12531      1.99383     13.23308         0.458889     -0.376340     -0.377496
O      13.19637     13.28926      0.35835         0.145588      0.050173     -0.177036
O      13.17705     13.23784     13.00973         0.364756      0.186343      0.504267
O       1.86285      2.01322      4.87050         0.303230     -0.525949     -1.351726
O       1.81031     13.35234      4.71344         0.019617     -0.031848      0.590981
O      13.23221      1.98084      4.60979        -0.006412     -0.246454     -0.003088
O      13.18121     13.17174      4.74725        -0.224255      0.404750     -0.612699
O       1.78606      1.81014      8.89931        -0.244925      0.333552      1.068086
O       1.80671     13.28771      8.92653         0.204413     -0.278781     -0.180385
O      13.39275      1.86153      9.07561        -0.303192      0.447860     -1.893189
O      13.15198     13.44221      9.01154         0.045218     -0.488543     -1.241491
O       1.82133      5.69397      0.44510         0.164281      0.218438     -0.942826
O       1.89385      5.66591     13.05247        -0.290140      0.074547      0.050242
O      13.39590      5.71417      0.31960         0.293473      0.173420      0.580713
O      13.34463      5.70931     13.15478        -0.458564     -0.055083     -0.795135
O       1.94179      5.72541      4.73572         0.039115      0.017964     -0.493544
O      13.25270      5.68604      4.76144        -0.441003      0.481256     -1.008183
O       1.87843      5.69418      8.89380        -0.347680     -0.018840     -0.360828
O      13.21005      5.76267      8.93791         0.431530      0.408571     -0.333331
O       1.84892      9.43608      0.44590         0.168518      0.261860     -0.187205
O       1.90397      9.42569     13.16320        -0.172093      0.761107      0.599729
O      13.32582      9.55607      0.34274         0.030097     -0.425086     -1.030292
O      13.32302      9.47475     13.12450        -0.221238     -0.000566     -0.803395
O       1.88411      9.52608      4.74857        -0.280358     -0.210947     -0.885920
O      13.24617      9.47519      4.73265         0.101544     -0.014396      0.435561
O       1.90700      9.57288      8.88502        -0.344203     -0.004803     -0.214887
O      13.09711      9.38897      8.92140         0.837331      0.055796     -0.381537
O       5.74981      2.03526      0.52785        -0.079954     -0.147469     -0.887733
O       5.68935      1.96596     13.13455        -0.139902     -0.491550     -0.240008
O       5.66232     13.25262      0.49403        -0.066866      0.167333      0.270853
O       5.67691     13.19794     13.17520        -0.261659      0.092381     -0.513200
O       5.60873      1.84897      4.75835         0.111355     -0.195934      0.288170
O       5.70037     13.37428      4.69009        -0.078671     -0.455525     -0.449692
O       5.74237      1.86914      8.98381         0.215990     -0.091882     -0.469432
O       5.66789     13.36291      9.05306         0.086736     -0.554584      0.244289
O       5.63176      5.52457      0.38547         0.501589      0.483741      1.187805
O       5.65304      5.61332     13.08069         0.065345      0.272155      0.736025
O       5.71601      5.78921      4.60675        -0.111101     -0.105724      0.065163
O       5.63975      5.72237      8.87000        -0.124428     -0.098412      0.202536
O       5.62486      9.56466      0.43273         0.050097     -0.566816      0.465496
O       5.64099      9.44555     13.25319        -0.136973      0.272746     -0.559017
O       5.74848      9.57542      4.56145        -0.054387     -0.472103      0.242619
O       5.45475      9.40436      8.91479         0.651128      0.573380      0.506933
O       9.42300      1.98485      0.45844         0.017511     -0.154112     -0.610369
O       9.46721      1.93652     13.20315         0.150878     -0.506273     -0.164128
O       9.37515     13.30461      0.38966         0.311731     -0.274810     -0.383270
O       9.47344     13.23101     13.11739        -0.423920      0.514074      0.411505
O       9.61865      1.95554      4.56452        -0.199368     -0.314829      0.060246
O       9.54742     13.27290      4.68921        -0.455557      0.272003     -0.822170
O       9.51350      2.07628      8.95735        -0.318982     -0.832259     -0.091628
O       9.37721     13.31818      9.01354        -0.380803     -0.241899     -0.656096
O       9.54317      5.66155      0.35790        -0.441074     -0.011418     -0.919487
O       9.49824      5.74783     13.18950        -0.038962      0.110686      0.154624
O       9.60466      5.65894      4.66795        -0.137625      0.494099     -0.416188
O       9.31513      5.71930      8.83305         0.218259     -0.312813      0.063450
O       9.56751      9.51682      0.35684        -0.089176     -0.244626     -0.572527
O       9.46028      9.26964     13.19212        -0.143928      0.359069     -0.627543
O       9.43652      9.50822      4.70563         0.005245      0.207982     -1.512581
O       9.34496      9.45961      8.86873         0.002165      0.313442      0.618935
O       3.78443      2.01078      2.58347        -0.764295     -0.558566      0.228787
O       3.88853      1.86489     15.34027        -0.459046     -0.322543     -0.002076
O       3.78405     13.28055      2.58155        -1.570374      0.278615      0.538760
O       3.74212     13.27502     15.42342         0.220559     -0.010308     -0.352312
O      15.16169      2.02040      2.58475         0.622206     -0.621658      0.135994
O       0.08336      1.78188     15.17907        -0.874300      0.243200      0.263335
O      15.08840     13.29118      2.57673         0.536928      0.082872      0.162349
O      15.18981     13.32342     15.23716        -0.363610     -0.268602      0.146656
O       3.80005      1.74246      6.91526        -0.322858      0.193060      0.031854
O       3.74956     13.40458      6.86745        -0.127553      0.097365      0.110590
O      15.10996      1.95240      6.72518         0.365725      0.497975      0.698446
O      15.00217     13.24884      6.78205         1.807318     -0.595387      0.813368
O       3.72580      1.74662     10.95204         0.487878      0.272137      0.730935
O       3.72250     13.37318     11.03006         0.070013     -0.240776      0.538601
O      15.14540      1.93579     11.19735         0.176371     -0.061689      0.257299
O      15.11146     13.29345     10.87710         0.033986     -0.703754      0.834314
O       3.80686      5.71250      2.44610        -0.396499      0.208767      0.562599
O       3.81382      5.59549     15.20915        -0.926997      0.272156      0.385225
O       0.04843      5.84036      2.60104         0.201475     -0.369587      0.079652
O      15.16309      5.65835     15.21322         1.047998     -0.066233      0.316073
O       3.79406      5.70913      6.74183        -0.253761      0.082699      0.311247
O      15.10905      5.69742      6.69495         0.966307      0.145491      0.958248
O       3.72006      5.68631     11.01443        -0.251670     -0.015721      0.290215
O      15.13976      5.76081     11.03246         0.063850     -0.359643      0.217751
O       3.75644      9.57579      2.60869         0.608569     -0.341573      0.284102
O       3.80998      9.55254     15.36388        -1.191073     -0.248918      0.005616
O       0.04551      9.52030      2.54882        -1.067976      0.000341      0.476706
O      15.17899      9.51564     15.21458         0.458945      0.304158     -0.013896
O       3.77260      9.42900      6.61471        -0.292551     -0.226426      0.611658
O       0.00432      9.64296      6.83267        -1.251294     -0.453458      0.508787
O       3.66740      9.46548     11.00138         0.528512      0.326959      0.754442
O      15.15315      9.58853     11.01566        -0.467760      0.028387      0.197965
O       7.55291      1.92428      2.58763         0.512941      0.394550      0.566063
O       7.59767      1.83216     15.29725         0.001323      0.150739      0.144758
O       7.49383     13.31217      2.50097         1.425069     -0.229844      0.823775
O       7.56799     13.25748     15.28348         0.469634      0.194364     -0.054201
O       7.62412      1.90694      6.67054         0.229109      0.049102      0.637484
O       7.56212     13.27439      6.76191        -0.833964     -0.366710      0.503276
O       7.59345      1.91128     11.06180        -0.125719      0.029778      0.261954
O       7.50491     13.31424     11.11590         0.167344     -0.695077      0.581703
O       7.67118      5.68215      2.52957        -0.487014      0.030992     -0.162542
O       7.55698      5.75025     15.25603         0.920451      0.044598      0.388711
O       7.56444      5.63425      6.59700         1.247993     -0.100059      0.609957
O       7.49582      5.64054     10.95852         0.637437     -0.176756      0.658408
O       7.61018      9.38055      2.36571         0.346023      0.158537      0.522168
O       7.61447      9.46840     15.30100        -0.739922     -0.281078      0.434512
O       7.53935      9.61179      6.71758        -0.650952      0.088200      0.672144
O       7.48488      9.49861     11.05929        -0.074788      0.266194      0.094270
O      11.36889      1.98218      2.39141         1.214864     -0.329275      0.412191
O      11.39389      1.94234     15.34507        -0.453953     -0.505894      0.217993
O      11.33793     13.27366      2.52049        -0.216971      0.263665      0.217604
O      11.36801     13.27900     15.28521         0.112439      0.471396     -0.045689
O      11.40513      1.86710      6.83608        -0.563942     -0.169896      0.332665
O      11.34454     13.33945      6.82484        -1.026328      0.398845      0.785576
O      11.37660      1.87540     11.01617        -0.536062      0.039779      0.474275
O      11.28912     13.31219     10.95948        -0.242089      0.180982      0.806095
O      11.47445      5.71555      2.35145        -0.384763      0.115478      0.785304
O      11.44124      5.64174     15.35033        -0.568008      0.533305     -0.097699
O      11.34885      5.79354      6.89560        -0.211670     -0.089011      0.190710
O      11.26233      5.72851     10.84763         0.531366      0.400065      0.498588
O      11.43411      9.47367      2.49228         0.026463     -0.190697      0.227578
O      11.35138      9.36419     15.15472         1.615570      0.363303      0.403805
O      11.28540      9.43521      6.80186         0.159756      0.284627      0.357204
O      11.31162      9.40108     11.01519        -0.737159     -0.907937      0.163423
O       1.83699      3.83562      2.60789         0.328638      0.248709     -0.118685
O       1.97726      3.73760     15.28751        -0.642053      0.435286      0.075144
O       1.77153      0.15038      2.65672         0.424939     -0.978403      0.471789
O       1.91216     15.14819     15.31305         0.396183     -0.304454      0.152610
O      13.41951      3.87348      2.52270        -0.527386     -0.695619      0.013749
O      13.32672      3.76954     15.26884         0.196894     -0.092448      0.336993
O      13.29397     15.13728      2.56998        -0.343514      1.367571      0.056499
O      13.22149      0.00141     15.20775         0.094516     -0.725515      0.255176
O       1.87044      3.78584      6.83815         0.146699      0.204523      0.658166
O       1.56529     15.17685      6.81939         0.821528      0.458782     -0.042483
O      13.19085      3.84786      6.86460        -0.099848     -0.173979      0.322190
O      13.32909      0.08171      6.72657        -0.610861     -0.634822      0.258234
O       1.76107      3.77333     10.96213         0.328605     -0.349512      0.243941
O       1.71044     15.12880     11.09653         0.414011      0.977972      0.463659
O      13.18934      3.88052     11.02442         0.282198     -0.749777      0.403193
O      13.27931     15.19370     11.02035        -0.329841      0.946403      1.026645
O       1.94864      7.65495      2.53788         0.233708     -0.705121      0.649570
O       1.83454      7.49809     15.14593         0.505514      1.412412      0.616440
O      13.41221      7.59803      2.51511        -0.679796      0.443419      0.273347
O      13.34591      7.61908     15.11391        -0.159157     -1.095847      0.682410
O       1.83633      7.55338      6.79095        -0.329037      1.037043      0.354705
O      13.28134      7.65671      6.77262         0.471225     -0.689947      0.734061
O       1.80518      7.62614     10.98773        -0.025914     -0.179465      0.357943
O      13.30488      7.63698     11.11509        -0.226226     -0.640860      0.167628
O       1.83895     11.47646      2.65583         0.293924     -0.516977      0.074434
O       1.90271     11.37208     15.33045        -0.145986      0.165688     -0.239151
O      13.25105     11.36215      2.48728         0.090023     -0.086264      0.271520
O      13.28236     11.39866     15.09340         0.064618     -0.467889      0.554071
O       1.94939     11.46434      6.79178        -0.105394     -1.113574      0.509588
O      13.12285     11.37039      6.91598         0.245497      0.350616      0.517802
O       1.85614     11.40850     11.01420         0.319879     -0.680647      0.541933
O      13.03480     11.32239     10.90820         0.735589      0.592719      0.317593
O       5.61522      3.88114      2.71641         0.676245     -1.016816      0.031223
O       5.72067      3.77362     15.22287         0.193541     -0.371699      0.501004
O       5.67917      0.00052      2.67945        -0.366500      0.601724     -0.181954
O       5.66560     15.12672     15.21030         0.148052      1.164399      0.294166
O       5.63350      3.81278      6.70397         0.041482     -1.181950      0.527345
O       5.75016     15.13743      6.94214         0.186214      0.350937      0.048379
O       5.59423      3.80136     10.97850        -0.112837     -1.503640      0.322037
O       5.70332      0.00890     11.14924        -0.061354     -0.474185      0.489422
O       5.74003      7.55401      2.47544        -0.366729      0.827842      0.373512
O       5.49735      7.54918     15.32477         0.744033      0.413503      0.137132
O       5.76598      7.60135      6.69641        -0.408134      0.388111      0.303212
O       5.59212      7.55572     11.05228         0.023046      0.939813      0.404483
O       5.72396     11.33782      2.55986        -0.047998      0.827517      0.294493
O       5.67731     11.42717     15.42039         0.037656     -0.673876     -0.161281
O       5.54526     11.35115      6.78531         0.311935      0.981198      0.293807
O       5.61204     11.31776     11.07562        -0.086208      0.928831      0.231509
O       9.47597      3.82682      2.52759         0.033341      0.172493      0.089504
O       9.55370      3.81352     15.19227        -0.571309     -0.720552      0.616059
O       9.38931     15.18239      2.39600         0.447741      0.198943      0.733192
O       9.51683      0.00384     15.32497        -0.050244     -0.809910     -0.025471
O       9.53401      3.75068      6.81513        -0.057140      0.438987     -0.105799
O       9.42080     15.19390      6.89572         0.207769      0.986637     -0.110015
O       9.40280      3.75791     11.14816         0.382394      0.666501     -0.207962
O       9.37686     15.19947     11.07298         0.134703      0.500967      0.286471
O       9.56621      7.59955      2.34788        -0.136515     -0.568538      0.631192
O       9.61175      7.55327     15.36727        -0.543330      0.253214      0.472008
O       9.37472      7.61793      6.79049        -0.166503      0.050535     -0.169854
O       9.23463      7.55628     10.91077         0.511055      0.016044      0.374240
O       9.47941     11.38148      2.46494        -0.202431     -0.506621      0.530571
O       9.62744     11.35713     15.11434        -0.725633      0.332777      0.471575
O       9.48141     11.48186      6.80779        -0.061088     -0.599838      0.590153
O       9.44605     11.32864     11.00873        -0.619371     -0.039543      0.163103
