  # total energy = -7882.23218336 
CRSYTAL
PRIMVEC
    15.3600000000000000    0.0000000000000000    0.0000000000000000
     0.0000000000000000   15.3600000000000000    0.0000000000000000
     0.0000000000000000    0.0000000000000000    17.440000000000000
PRESSURE
1.74958 1.70512 2.49157 -0.220391 -0.317779 -0.078884
PRIMCOORD
320 1
Pb       3.83483      3.86164      4.23696         0.066208     -0.453981      0.367056
Pb       3.76758      3.90222     17.35618        -0.131301     -0.011589     -0.114586
Pb       3.88761     15.35712      4.22776        -0.744428      0.172042      0.369864
Pb       3.97932      0.02321      0.02375        -0.354813     -0.487731      0.053074
Pb      15.25386      3.93774      4.29954        -0.025369     -0.823377     -0.217555
Pb      15.20551      3.71948     17.36441         0.138035      0.755662     -0.042980
Pb      15.25171     15.33276      4.35875         0.717390      0.037538     -0.201071
Pb       0.14552      0.02493     17.39538        -0.777950      0.067691      0.403134
Pb       3.97746      3.89068      8.57288        -0.741240     -0.504908      0.578490
Pb       3.78471     15.26755      8.73155        -0.049036      0.020012     -0.249915
Pb       0.16229      3.70189      8.66467        -0.565560      0.044894      0.740525
Pb       0.17423     15.29560      8.57670        -0.990613      0.094736      1.125680
Pb       3.90105      3.94673     13.07680        -0.694515     -0.176617      0.698305
Pb       4.02620     15.35555     13.22740        -0.774022      0.209633     -0.193107
Pb      15.24893      3.89181     12.93552         0.211737     -0.443184      0.628990
Pb      15.31237      0.02217     13.00289         0.515627      0.043703      0.490882
Pb       3.77936      7.65813      4.32223         0.414741     -0.507516     -0.065335
Pb       3.86515      7.78302     17.43510         0.120860     -0.500921      0.036337
Pb      15.18448      7.44761      4.29768         0.063181      1.289892      0.242767
Pb       0.21394      7.64382     17.42112        -1.317723     -0.179476     -0.160786
Pb       3.78290      7.59051      8.64620         0.643150      0.345538      0.295256
Pb      15.29673      7.71078      8.63509         0.209570     -0.000814      0.679774
Pb       3.83526      7.82820     13.09139        -0.249304     -0.853969     -0.226120
Pb      15.30157      7.74813     12.91639         0.436444     -0.301410      0.221835
Pb       3.86657     11.40520      4.36765         0.122034      0.409441     -0.086988
Pb       3.69728     11.44494      0.00633         0.537231      0.486810     -0.092619
Pb      15.33436     11.39709      4.29916         0.048560      0.032764      0.462405
Pb       0.09020     11.38533      0.09873        -0.182573      0.227857     -0.973192
Pb       3.74176     11.48282      8.66556         0.526200      0.082125      0.036962
Pb       0.10495     11.63587      8.59892        -0.472931     -0.649673      0.484643
Pb       3.73982     11.58861     13.00490        -0.458559     -0.441304      0.349384
Pb      15.11608     11.43725     12.97689         1.026025     -0.212145      0.408987
Pb       7.57029      3.95735      4.24051         0.450236     -0.644065      0.686675
Pb       7.70174      3.82648     17.36233        -0.054820      0.001428     -0.218969
Pb       7.55452     15.33054      4.21148         0.663530      0.296158      0.734790
Pb       7.82178     15.25380      0.01185        -0.419766      0.382140     -0.076570
Pb       7.70810      3.78539      8.66257         0.097005      0.136326      0.071109
Pb       7.69920      0.07626      8.68623        -0.066620     -0.599247     -0.195620
Pb       7.49902      3.66151     13.01674         0.570811      0.441361      0.223653
Pb       7.72659     15.06643     13.13301        -0.768721      1.086277      0.307807
Pb       7.60928      7.79243      4.36468         0.095363     -0.553132     -0.032931
Pb       7.76416      7.51026     17.36252        -0.463529      0.564763      0.274384
Pb       7.65113      7.59531      8.71150        -0.138807      0.264011      0.063152
Pb       7.76193      7.62829     13.07626        -0.737241      0.423712     -0.119336
Pb       7.65855     11.49906      4.26617         0.208201      0.231323      0.340166
Pb       7.68761     11.44673     17.31955        -0.089269      0.242785      0.758984
Pb       7.76399     11.44705      8.79831        -0.852407      0.063856     -0.393477
Pb       7.57843     11.53547     13.06973         0.020838     -1.108312      0.232620
Pb      11.58835      3.91881      4.36632        -0.767010     -0.239571     -0.061111
Pb      11.28219      3.78076     17.33526         0.728986      0.419871     -0.445945
Pb      11.51030      0.14192      4.31176        -0.753336     -0.233561      0.367717
Pb      11.69147      0.05316     17.33625        -0.535009      0.084002     -0.371016
Pb      11.69129      3.69718      8.67810        -0.815393      0.005648      0.381706
Pb      11.51533     15.34356      8.64370        -0.152539      0.028552      0.178209
Pb      11.41405      3.91311     12.87589         0.119294     -0.656545      0.973103
Pb      11.42205     15.30113     13.10553         0.296370      0.369071     -0.219476
Pb      11.53445      7.67124      4.38919         0.026316      0.277974      0.010361
Pb      11.42797      7.67378     17.32415         0.452909     -0.254316      0.246622
Pb      11.47015      7.59163      8.66174        -0.057863      0.391335      0.091139
Pb      11.62179      7.68923     12.99276         0.014963      0.288820      0.042769
Pb      11.39382     11.56690      4.36383         0.082348     -0.402488      0.179355
Pb      11.63745     11.57284     17.40114        -0.593282     -0.394258      0.362529
Pb      11.34938     11.52774      8.75590         0.811604     -0.097286     -0.601461
Pb      11.40039     11.58534     13.04986         0.367823     -0.801735      0.094649
Ti       1.88441      1.92031      2.29690        -0.250109     -0.961036     -0.044661
Ti       1.90915      1.99533     15.37776        -0.569721      0.003324      1.367097
Ti       1.78885     13.38343      2.37293         0.658834      0.548407      2.427128
Ti       1.88172     13.54477     15.46677         0.687004     -1.276686     -1.014669
Ti      13.41608      1.91736      2.32876         0.104747      0.661284     -0.369673
Ti      13.42860      1.97578     15.23693        -0.915842      0.053310     -0.653916
Ti      13.35922     13.48486      2.40825         0.188669     -0.899558      0.832433
Ti      13.47217     13.41465     15.38000        -0.086851     -0.371926      0.858799
Ti       1.89257      1.87527      6.57743         0.604336     -0.196396      0.625158
Ti       1.88094     13.34092      6.55054         0.471648      0.437001     -0.811903
Ti      13.45489      1.81444      6.71072        -0.557545      0.183867      0.000243
Ti      13.35960     13.36032      6.63715        -0.064618      0.650782      2.195564
Ti       1.94116      1.94134     11.09727        -0.912839     -0.775509      0.442311
Ti       1.86036     13.44768     11.09682         0.248484     -0.570466      0.057725
Ti      13.34346      1.77784     11.06149         0.782371      0.580613      0.894832
Ti      13.40720     13.40397     11.08786         0.071497     -0.590997     -0.781262
Ti       1.86231      5.69700      2.28842         0.000055     -0.171010     -0.049719
Ti       1.91780      5.82202     15.39281        -0.349454     -1.046117     -0.100385
Ti      13.32747      5.75968      2.25023        -0.761386      0.524945     -1.335643
Ti      13.41274      5.77075     15.35467         0.053672      0.079362      0.754252
Ti       1.80421      5.71818      6.62587         1.174473      0.177581      0.715242
Ti      13.44198      5.68953      6.80917        -0.851796     -0.022443     -0.148098
Ti       1.94119      5.69314     11.00267        -0.021936      0.980740      1.986028
Ti      13.45407      5.66613     10.96806         0.394587      0.520334     -0.308649
Ti       1.91617      9.52507      2.45601         0.068175      0.145102     -0.639404
Ti       1.92462      9.58523     15.33116        -0.752352      0.364275     -0.925955
Ti      13.38461      9.64827      2.29983         0.080232     -0.696784      2.464659
Ti      13.41098      9.51222     15.43029         0.376837      0.493909     -0.153375
Ti       1.97773      9.45201      6.66270        -0.955957      1.173809      0.392917
Ti      13.43321      9.57259      6.75644        -0.474006      0.004922      0.850162
Ti       1.97777      9.56095     10.97872        -0.941725      0.132049      2.495931
Ti      13.45575      9.59415     10.89567        -0.639467     -0.189809      1.038194
Ti       5.75731      1.92336      2.25276        -0.054281      0.019957      0.162730
Ti       5.72380      1.92773     15.54093         0.855406     -0.751689     -1.814191
Ti       5.62076     13.40794      2.36039         1.378473     -1.003263     -1.353705
Ti       5.74594     13.37615     15.46650        -0.252221      0.107501      4.043132
Ti       5.65510      1.84499      6.68909         0.700153     -0.031251     -1.324062
Ti       5.69154     13.38660      6.66356         0.345229     -0.490288      2.368956
Ti       5.65715      1.82610     11.09833        -0.069783      0.457416      0.490781
Ti       5.67718     13.37201     11.06261         0.165492      0.645101     -0.708821
Ti       5.68731      5.73718      2.18131         0.500228      0.233070      0.447862
Ti       5.73961      5.75404     15.45010        -0.444679      0.289365      1.025334
Ti       5.72064      5.74192      6.64288         0.360206      0.145265     -0.242241
Ti       5.70261      5.75078     11.05900         0.413492      0.333105      1.640249
Ti       5.79327      9.57012      2.27598        -0.194628     -0.019882      0.952844
Ti       5.75969      9.52859     15.42771         0.405993      0.440293      0.752349
Ti       5.77498      9.57922      6.68419         0.208772      0.009837      2.841982
Ti       5.71010      9.56898     11.01138         0.857717     -0.215659     -0.258099
Ti       9.55311      1.99193      2.36188        -0.433676     -0.429387      1.045989
Ti       9.52829      1.92394     15.28796        -0.057583      0.310438     -0.205640
Ti       9.55128     13.46445      2.34963        -0.497230     -0.175703      0.991733
Ti       9.62452     13.41604     15.43753        -0.321997      0.736350      0.003530
Ti       9.53976      1.92642      6.68269         0.302355      0.081289     -0.535486
Ti       9.48630     13.40720      6.67973        -0.015171      0.327998     -0.510754
Ti       9.44200      1.76208     11.09902         1.196242      1.477721     -0.017314
Ti       9.56408     13.33716     11.10486        -0.634311      1.238484     -0.164587
Ti       9.52791      5.83837      2.38104         0.273691     -1.271585     -0.201136
Ti       9.58037      5.87288     15.25597         0.079963     -0.750481      1.646578
Ti       9.60624      5.70940      6.76183        -0.800788     -0.435423      1.700299
Ti       9.59634      5.78294     10.98888        -0.915863     -1.298456     -0.270609
Ti       9.60929      9.55990      2.33550         0.051163      0.877700      0.965960
Ti       9.57469      9.69528     15.39531         0.327553     -1.224972     -0.841164
Ti       9.52846      9.55778      6.69901         0.568957     -0.209063     -0.192298
Ti       9.55289      9.54483     11.09701        -0.145313      0.222629     -0.034331
O       1.81626      1.93505      0.51067        -0.119564     -0.067326      0.594744
O       1.77043      1.90608     13.68869         0.395740      0.047893     -0.834006
O       1.90958     13.42478      0.68592        -0.252365     -0.050156     -2.208406
O       1.99330     13.48633     13.69541        -0.407894     -0.157213      1.147828
O      13.36545      1.92964      0.54900         0.043565     -0.105014      0.628961
O      13.43819      1.98213     13.41881        -0.213367     -0.351872      1.985579
O      13.25849     13.34408      0.69303         0.214155      0.416549     -0.833437
O      13.34516     13.45973     13.64508         0.083494     -0.566175     -0.072849
O       1.98712      1.86327      4.84154        -0.362562      0.138758      0.184459
O       1.84806     13.38042      4.75188         0.130379     -0.096477      1.402548
O      13.44440      1.78270      4.93668         0.029550      0.286936     -0.117375
O      13.34710     13.46978      4.93929         0.256227      0.093289     -1.341325
O       1.82753      1.79699      9.34147         0.419856      0.252315     -0.065151
O       1.98895     13.44618      9.29092        -0.454649     -0.128667      0.360350
O      13.44518      1.87828      9.32403        -0.140637     -0.123342     -0.530037
O      13.39442     13.34850      9.32705        -0.057958     -0.085813      0.304334
O       1.80829      5.72284      0.52862         0.292779      0.029859      0.432237
O       2.07397      5.92304     13.68164        -0.714969     -0.407444     -0.677986
O      13.22776      5.78955      0.46909         0.225201     -0.354775      1.260922
O      13.41934      5.68591     13.59995        -0.051428      0.472466     -0.274344
O       1.96180      5.88070      4.88583        -0.510343     -0.694218     -0.005259
O      13.36835      5.78470      5.00830         0.173883     -0.099987      0.231516
O       1.97263      5.57315      9.30054         0.000547      0.487983     -1.333080
O      13.47650      5.62790      9.18065        -0.071439     -0.048378      0.840035
O       1.97385      9.58696      0.67065        -0.252773     -0.387258     -0.112790
O       1.89097      9.55424     13.52748         0.142103     -0.021784      1.353556
O      13.36049      9.71863      0.60580         0.235684     -0.131742     -1.051777
O      13.50805      9.49895     13.64877        -0.425931      0.048298      0.303050
O       1.98762      9.46480      4.91814         0.025081     -0.061134     -0.869486
O      13.47221      9.47924      5.04695        -0.098892     -0.084410     -0.986241
O       2.01720      9.69437      9.30122        -0.221381     -0.333628     -2.674132
O      13.47329      9.65907      9.16485        -0.214579      0.075721     -0.432991
O       5.65519      1.86827      0.48633         0.535364      0.241553     -0.179463
O       5.82445      1.77467     13.69471        -0.430865      0.496369      1.331332
O       5.63232     13.39362      0.57721         0.314484     -0.123220      0.492872
O       5.73623     13.36985     13.80861        -0.116284      0.019964     -3.369001
O       5.71465      1.76279      4.89406        -0.554904      0.258008      0.882589
O       5.63852     13.25421      4.96467         0.166468      0.608719     -1.287964
O       5.57153      2.02018      9.36831         0.238129     -0.655021     -0.481227
O       5.67564     13.45801      9.30518        -0.087313     -0.109811      0.666766
O       5.72258      5.76248      0.42699        -0.207582     -0.338239      0.328125
O       5.59805      5.75936     13.74823         0.477413      0.144488     -1.749950
O       5.59424      5.81385      4.88982         0.508503     -0.305883     -0.164989
O       5.61645      5.63009      9.35574         0.096024      0.149241     -1.331751
O       5.73749      9.56176      0.55462        -0.075870      0.228074     -0.597731
O       5.71730      9.65452     13.71490        -0.059505     -0.358709     -0.862693
O       5.78185      9.61193      4.99597        -0.004433     -0.330311     -2.284154
O       5.84388      9.41145      9.26128        -0.379895      0.900865      0.253583
O       9.30519      2.00836      0.62728         0.912474      0.122913     -0.428267
O       9.51086      1.94902     13.51025         0.030777     -0.504304      0.584597
O       9.42516     13.45058      0.62510         0.715290      0.089111     -0.906190
O       9.57295     13.32502     13.65657         0.204304      0.392128     -0.204101
O       9.58052      1.88664      4.92660         0.160112      0.158969      0.036781
O       9.43003     13.30250      4.89840         0.465305      0.472682      1.220008
O       9.59571      1.87253      9.33202        -0.534538     -0.353520      0.301946
O       9.35851     13.54543      9.37963         0.817242     -0.449804     -0.548815
O       9.49392      5.77512      0.61050         0.484488     -0.101458     -0.184102
O       9.52075      6.02838     13.56360         0.445759     -0.537583     -1.141365
O       9.46655      5.57336      5.06690         0.434735      0.496240     -1.483854
O       9.51003      5.71380      9.19470         0.319907      0.166253      1.560901
O       9.61439      9.64368      0.62859        -0.095809     -0.346867     -1.062184
O       9.55732      9.50787     13.61675         0.303451      0.493523      0.381764
O       9.52441      9.58698      4.93817        -0.201131     -0.297075     -0.089257
O       9.42199      9.55102      9.33649         0.542110      0.251436     -0.143020
O       3.83773      1.92344      2.60278        -0.446671     -0.028147      0.381449
O       3.77615      1.86030     15.83024         0.298847      0.366159     -0.234324
O       3.82753     13.33975      2.74554        -1.192519      0.096290      0.226108
O       3.79990     13.43920     15.93670        -0.049625     -0.196058     -0.401196
O      15.30453      1.97349      2.72618        -0.532272     -0.434637      0.105573
O      15.23106      1.95023     15.75027         0.574856     -0.102209      0.146584
O      15.28041     13.37779      2.73889        -0.323001      0.374248      0.067514
O      15.34730     13.37704     15.93099        -0.141269      0.098017     -0.211553
O       3.76934      1.84405      7.12061        -0.438861      0.384331     -0.311679
O       3.76170     13.32526      7.13449         0.090023      0.546201     -0.549247
O      15.33996      1.86811      7.19009         0.627681     -0.188576     -0.851775
O      15.34523     13.41924      7.08554         0.228775     -0.282832     -0.591326
O       3.75730      1.85580     11.63100         0.740538     -0.735606     -0.259830
O       3.76826     13.47252     11.60665         0.775694     -0.159836     -0.567966
O       0.00379      1.97346     11.50523        -0.277071     -0.286656     -0.292474
O      15.32792     13.28342     11.54111        -0.286807      0.198998     -0.513820
O       3.79014      5.59345      2.74405        -0.193967      0.363353     -0.866969
O       3.81845      5.76487     15.71956        -0.562745     -0.227013      1.157251
O      15.21719      5.76534      2.68345         1.214776     -0.209629      0.002967
O      15.24768      5.81297     15.76643         0.907078     -0.095905      0.204764
O       3.82541      5.86412      7.01311        -0.645604     -0.769745      0.287474
O      15.29663      5.75523      7.12974         1.471412      0.150732     -0.427400
O       3.81204      5.75519     11.62714         0.416965      0.517849     -0.922870
O      15.32737      5.77674     11.51683         0.327062     -0.872991     -0.800007
O       3.94134      9.67488      2.78342        -1.383731     -0.829794     -0.096057
O       3.82843      9.52276     15.78469        -0.370822      0.072444      0.173535
O       0.02925      9.48702      2.83473        -0.662889     -0.124570     -0.464053
O       0.01758      9.52206     15.80666         0.061481      0.384488      0.368661
O       3.82876      9.57379      7.07381         0.363757     -0.344987      0.094375
O       0.02035      9.50397      7.06181         0.053612      0.375003      0.213746
O       3.82110      9.56953     11.41474         0.569423      0.181552      0.112060
O      15.31644      9.66934     11.36992        -0.376212     -0.213499     -0.103328
O       7.59526      1.90317      2.85835         0.035244      0.179949     -0.649634
O       7.64929      1.91590     15.83476        -0.012242      0.074081     -0.046169
O       7.66292     13.40916      2.76221        -0.457142      0.003383     -0.099878
O       7.74383     13.41281     15.85661        -0.614491      0.128989     -0.144138
O       7.64105      2.00896      7.01969        -0.904728     -0.818493      0.538844
O       7.65627     13.44823      7.22760        -0.343006      0.062565     -0.653417
O       7.61060      1.85935     11.48179        -0.839822      0.232034     -0.388988
O       7.66027     13.28045     11.57102        -0.987659      0.844149     -0.183981
O       7.66019      5.70749      2.62666        -0.881425      0.320967      0.394782
O       7.64551      5.73763     15.73811         0.705677      0.362654      0.156226
O       7.64361      5.73110      7.15206        -0.279158     -0.526716     -0.213512
O       7.62049      5.73522     11.53732        -0.216554      0.001821     -0.636905
O       7.64489      9.49563      2.77554         0.282071      0.282622     -0.225851
O       7.72088      9.50131     15.75414        -0.500333      0.524753      0.379872
O       7.67814      9.59892      7.16008        -0.269908     -0.279271     -0.205030
O       7.67182      9.61669     11.55037        -0.500205      0.137850     -0.141208
O      11.49533      1.99001      2.70312         0.097492     -0.403424      0.017780
O      11.46025      1.97498     15.75015         0.476425     -0.417628      0.023281
O      11.47601     13.41762      2.90971        -0.130940      0.294379     -0.641140
O      11.45930     13.38035     15.89668         1.218773      0.770756     -0.256776
O      11.51299      1.93776      7.09798         0.450692     -0.338611     -0.018663
O      11.47656     13.43558      7.13917        -0.873059     -0.142099     -0.090353
O      11.47706      1.66704     11.41962        -0.264625      0.458618      0.009112
O      11.45082     13.42052     11.52216        -0.102498      0.346222     -0.165842
O      11.43413      5.77199      2.81489         0.291317     -0.303744      0.035305
O      11.46556      5.89235     15.66746        -0.604864     -0.423909      0.200863
O      11.52573      5.62451      7.22886        -0.124983      0.494230     -0.547341
O      11.59540      5.79250     11.52167        -1.582196      0.136209     -0.972454
O      11.50270      9.58100      2.85920         0.341872      0.018013     -0.445436
O      11.47830      9.54698     15.81416         0.092984      0.311935     -0.138873
O      11.43828      9.41171      7.03045         0.575401      0.715190      0.582155
O      11.52262      9.59446     11.40088        -0.456464     -0.315730     -0.087048
O       1.75509      3.74832      2.75170         0.594403      1.412637      0.107723
O       1.80273      3.88521     15.92965         0.378125     -0.614735     -0.730996
O       1.78474     15.34342      2.78841         0.396044      0.200659     -0.466278
O       1.84242      0.03441     15.93764         0.215744      0.036526     -0.710524
O      13.42397      3.90772      2.79562        -0.264319     -0.931858     -0.099179
O      13.32324      3.87681     15.79362         0.094327     -0.760429     -0.233678
O      13.38235      0.02051      2.81697         0.088076      0.046858     -0.564567
O      13.43804     15.32225     15.69375        -0.482891      0.513608      0.354222
O       1.84889      3.84038      7.05364         0.291214     -0.190053     -0.688113
O       1.85095     15.32935      7.04172         0.564288     -0.382937     -0.594880
O      13.52070      3.75164      7.06359        -0.228027      0.217005      0.027006
O      13.38020     15.30031      7.18293         0.381131      0.152842     -0.485208
O       2.02364      3.82855     11.41968        -0.557680     -0.118648      0.202333
O       1.79325     15.25290     11.58373         0.227272      0.959893     -0.696382
O      13.29359      3.78221     11.49894         0.490327      0.090707     -0.922052
O      13.48758     15.22280     11.53220        -0.303925      1.237312     -0.338550
O       1.93795      7.52820      2.72179         0.161421      1.006392     -0.119509
O       1.87091      7.63482     15.81556         0.404641      1.460291      0.396205
O      13.32796      7.63861      2.78910         0.244742      0.584813     -0.260145
O      13.40856      7.71332     15.94368        -0.100631     -0.196283     -0.450309
O       1.94218      7.64671      7.19201        -0.482740     -0.830050     -0.320213
O      13.42620      7.61141      7.28366        -0.221780      0.099963     -0.604426
O       1.85948      7.64464     11.36690         0.190845      0.038973     -0.150199
O      13.48040      7.61953     11.30261        -0.233480      0.853899     -0.073485
O       1.80335     11.43144      2.62163         0.242304      0.147702      0.633700
O       1.90529     11.44955     15.85291         0.014346      0.227849      0.089419
O      13.50966     11.49500      2.91751        -0.857619     -0.269517     -0.843523
O      13.37722     11.48875     15.90171         0.487472      0.142764     -0.541448
O       1.95981     11.46422      7.01451        -0.603831      0.124652     -0.018306
O      13.35046     11.52278      7.07058         0.175950     -0.756351      0.025200
O       1.91379     11.43107     11.38749         0.270570      1.319566      0.463263
O      13.24338     11.50277     11.54575         0.681386     -0.377887     -0.348433
O       5.78094      3.82511      2.61167        -0.376797     -0.094651      0.124070
O       5.72139      3.84303     15.80983        -0.183628     -0.742270      0.162822
O       5.69562     15.31536      2.67968         0.054674      0.336753     -0.002598
O       5.78142     15.29871     15.89932        -0.280179      0.251551     -0.129248
O       5.68835      3.77821      6.97824        -0.201966      0.507209      0.183396
O       5.58287     15.30220      7.14696         0.778318      0.156794     -0.333990
O       5.56498      3.75344     11.51811         0.989072      0.520748     -0.133311
O       5.75950     15.29094     11.59246        -0.038535     -0.263455     -0.390168
O       5.69568      7.58254      2.60954        -0.088762      0.720854      0.305935
O       5.72068      7.63982     16.02998         0.251281      0.536579     -1.007755
O       5.81767      7.62403      7.08982        -0.337656      0.293949     -0.077931
O       5.73697      7.74866     11.37007        -0.116204     -1.589283      0.498889
O       5.78580     11.49484      2.86957        -0.119486     -0.317577     -0.812475
O       5.85820     11.43507     15.88394        -0.703830      0.395780     -0.248851
O       5.77527     11.47063      7.15056        -0.189052      0.374787     -0.107551
O       5.70596     11.53171     11.50320        -0.201834     -0.325970     -0.133229
O       9.56239      3.82620      2.86912        -0.054982      0.491539     -0.398610
O       9.51501      3.84020     15.66365         0.294509      0.536064      0.393736
O       9.44685      0.05054      2.75047         0.908629     -0.404079     -0.208651
O       9.63434      0.07698     15.83295        -0.138823     -1.005225     -0.144817
O       9.55800      3.76814      7.25803         0.366819      0.650881     -0.404185
O       9.52621      0.04806      7.13936         0.182309     -1.026438     -0.112523
O       9.49048      3.84698     11.49013         0.565970      0.215091     -0.478621
O       9.41560     15.30253     11.58647         0.612776     -0.687482     -0.261941
O       9.55827      7.66931      2.85901         0.014927      0.024525     -0.146206
O       9.54177      7.72265     15.82044         0.066602     -0.423438     -0.032994
O       9.54083      7.64754      7.21596         0.114706     -0.476257     -0.627471
O       9.50950      7.64841     11.44203         0.428408     -0.215039     -0.264585
O       9.60181     11.48839      2.76055        -0.195854     -0.046527     -0.111893
O       9.64452     11.57455     15.82569        -0.407730     -1.086795     -0.049247
O       9.57019     11.48243      7.11547         0.153725      0.470692      0.360117
O       9.48946     11.50722     11.38395         0.884696     -0.707913      0.281504
