  # total energy = -7880.58656897 
CRSYTAL
PRIMVEC
    15.6000000000000000    0.0000000000000000    0.0000000000000000
     0.0000000000000000   15.6000000000000000    0.0000000000000000
     0.0000000000000000    0.0000000000000000    17.640000000000000
PRESSURE
-3.4048 -3.9301 -0.282836 0.091918 -0.487526 -0.04733
PRIMCOORD
320 1
Pb       3.91841      3.91699      4.26673        -0.678629     -0.207261      0.717349
Pb       3.78753      3.72313     17.55820         0.269155      0.017264     -0.092334
Pb       4.05477      0.09527      4.39284        -0.433807     -0.366186     -0.338054
Pb       3.99821     15.52070     17.49246        -0.126276      0.367732      0.241382
Pb       0.00483      3.87832      4.30380         0.078772     -0.387103     -0.188682
Pb      15.50510      3.78584     17.57578         0.366401      0.265724     -0.400789
Pb      15.59978     15.59051      4.31207        -0.259683      0.059593      0.074509
Pb       0.17964     15.50948     17.58351        -0.605543      0.203558      0.081547
Pb       3.93066      3.81670      8.72415        -0.109361      0.135806      0.332163
Pb       3.86207     15.58226      8.74560        -0.150145      0.126579      0.321196
Pb       0.04024      3.78511      8.66987        -0.199773      0.161807      0.604870
Pb       0.06613     15.57117      8.94645        -0.348349      0.213765     -0.094267
Pb       3.70981      4.09221     13.07607         0.092824     -0.311454      0.445942
Pb       3.86555      0.04896     13.19777        -0.225509     -0.064618     -0.226692
Pb      15.51417      3.82113     13.22674         0.332677      0.167014      0.239892
Pb       0.00885      0.00549     13.13953         0.126967     -0.047538      0.078915
Pb       3.82375      7.80003      4.16180         0.065190     -0.234408      0.795606
Pb       3.74021      7.80725     17.55518         0.397260     -0.187217      0.554339
Pb      15.49234      7.70976      4.42710         0.154902      0.212388      0.148813
Pb      15.43037      7.77011      0.01804         0.619524     -0.019959     -0.061826
Pb       3.82266      7.76247      8.74909         0.570718     -0.057981      0.306910
Pb       0.07492      7.78644      8.63212        -0.571034     -0.270958      1.130653
Pb       3.86207      7.90042     13.17396         0.206209     -1.150881     -0.226245
Pb      15.38235      7.82893     13.18487         0.267563      0.020974     -0.225509
Pb       3.89556     11.62751      4.29956        -0.037211      0.143248     -0.419390
Pb       3.91926     11.64289     17.54511        -0.291005     -0.148032      0.070893
Pb      15.58590     11.58909      4.39982        -0.041037      0.689100      0.238130
Pb      15.59047     11.55652      0.12008        -0.062540      0.258831     -0.167946
Pb       3.91175     11.71278      8.62839        -0.443485     -0.230427      0.667736
Pb       0.04055     11.55651      8.78415        -0.445548      0.342768      0.236322
Pb       3.92444     11.57091     13.23235         0.052394      0.587913      0.001072
Pb       0.13769     11.59669     13.24185        -1.242796      0.158697     -0.325684
Pb       7.82170      4.04922      4.29269        -0.027020     -0.307943      0.027201
Pb       7.84643      3.79541     17.48382        -0.365325      0.580325      0.753825
Pb       8.00375     15.59784      4.33941        -0.401907      0.106232     -0.323354
Pb       7.88487     15.39690     17.61810        -0.339580      0.731226      0.002713
Pb       8.03299      3.89985      8.66452        -0.662549     -0.169455      0.338590
Pb       7.75625     15.52121      8.64912        -0.272382      0.616905      0.371104
Pb       7.62123      3.83063     13.03595         0.383168      0.076173      0.705192
Pb       7.70529     15.46801     13.18234         0.205820      0.087507     -0.133810
Pb       7.66106      7.84806      4.32261         0.279201     -0.127462     -0.132127
Pb       7.81922      7.78566     17.48967        -0.094035     -0.044873      0.763184
Pb       7.88889      7.80047      8.75248        -0.527587     -0.045309     -0.035195
Pb       7.85613      7.67551     13.15059        -0.556395      0.308696      0.309397
Pb       7.73897     11.70443      4.32907         0.213081      0.259065      0.142951
Pb       7.76494     11.75431     17.62706         0.127587     -0.645440      0.273629
Pb       7.74258     11.63982      8.81217         0.150794     -0.129601     -0.308076
Pb       7.78344     11.51208     13.21474         0.721500      0.281164     -0.016746
Pb      11.57248      3.95140      4.32992         0.000713      0.160983     -0.072850
Pb      11.67512      3.97294     17.48960        -0.173278     -0.016190      0.143130
Pb      11.79144      0.05025      4.35723        -0.220691     -0.712109     -0.020096
Pb      11.79411      0.03090     17.51155         0.009133     -0.270926      0.294848
Pb      11.73329      3.90511      8.75864        -0.663667      0.110423      0.462305
Pb      11.58744     15.52096      8.81644         0.288747      0.390516     -0.308858
Pb      11.57895      3.89220     13.19109         0.399360     -0.002796      0.279835
Pb      11.74537      0.00043     13.20950        -0.329964      0.309852      0.227973
Pb      11.65166      7.85355      4.34928        -0.425823     -0.088025      0.207122
Pb      11.81398      7.89112     17.60147        -1.042648      0.026853      0.250451
Pb      11.81885      7.75420      8.77124        -0.344493      0.063247      0.087719
Pb      11.66684      7.87070     13.19897         0.311078     -0.314157     -0.073339
Pb      11.75111     11.82128      4.52541        -0.480891      0.300397     -0.064706
Pb      11.60524     11.81439      0.08108         0.512120     -0.574403     -0.263663
Pb      11.58632     11.75427      8.75077         0.278044     -0.451439      0.274511
Pb      11.82740     11.69821     13.21539        -0.362490     -0.182650      0.089378
Ti       1.96121      1.88344      2.37435        -0.013479     -0.163772      0.270925
Ti       1.94103      1.90162     15.52533        -0.033776      0.001044     -1.957923
Ti       1.89188     13.61958      2.42169        -0.295519      0.189118      0.098297
Ti       1.96225     13.54830     15.59229        -0.615168      0.043609      0.929021
Ti      13.54595      1.99007      2.32932         1.214104     -0.737135     -1.065612
Ti      13.60914      1.95194     15.69839         0.648238     -0.483122     -1.206181
Ti      13.59386     13.65622      2.39861         0.167181     -0.205502      0.811363
Ti      13.77716     13.62622     15.63232        -1.146666     -0.042281      1.296094
Ti       1.90165      1.91845      6.71632        -0.585687      0.059479      0.693474
Ti       1.73995     13.67577      6.90612         0.676311      0.017346      0.684150
Ti      13.47075      1.95053      6.78385         1.107004     -0.530003     -0.668346
Ti      13.56919     13.68223      6.99010        -0.577362      0.108429     -1.091154
Ti       1.94655      1.93565     11.19435        -0.255427      0.086710      2.137782
Ti       1.92975     13.54593     11.23782        -0.711705      0.409697      0.601519
Ti      13.63272      1.98453     11.25079        -0.585331      0.405708      0.774482
Ti      13.58440     13.74474     11.23252         0.589825     -1.976614      0.224363
Ti       1.88282      5.83943      2.33618        -0.183559     -0.233468     -0.785598
Ti       1.92340      5.81392     15.67093        -1.307379     -0.400150     -0.736436
Ti      13.63871      5.84490      2.37379        -0.775039      0.194385     -0.570077
Ti      13.65095      5.87756     15.62817        -0.455617     -0.308398      0.079324
Ti       2.01702      5.82740      6.77590        -0.472134     -0.941765     -1.154750
Ti      13.69810      5.83086      6.88434        -1.034088     -0.345901      1.292053
Ti       1.83103      5.88584     11.16489         0.758304     -0.101811      0.216000
Ti      13.66409      5.83968     11.22248        -1.069803      0.515290      1.593053
Ti       1.81458      9.70518      2.46028         0.174899      0.130354     -0.351405
Ti       1.86967      9.65416     15.61530        -0.774886      0.595934      0.124422
Ti      13.54779      9.79930      2.58227        -0.192452     -0.144050     -0.249809
Ti      13.58855      9.87310     15.66104        -0.183403     -0.048154      1.083826
Ti       1.93699      9.70484      6.73125         0.296039      0.460044     -0.161164
Ti      13.61347      9.72574      6.79453        -1.151748      0.199891     -0.803939
Ti       1.89347      9.69283     11.18046        -0.571430     -0.125683      0.701476
Ti      13.59233      9.78845     11.09347         0.604612      0.252682      2.131271
Ti       5.88979      1.97323      2.31490        -0.074522     -1.156498      1.213415
Ti       5.82856      1.92166     15.48838         0.558969      0.025027      0.584177
Ti       5.79639     13.66295      2.30376        -0.298521      0.436083     -0.057131
Ti       5.85307     13.56320     15.60298        -0.158484      0.443420      0.107014
Ti       5.79066      1.90976      6.75619         0.483268      0.413031      0.442234
Ti       5.74253     13.61487      6.77729         0.369031      0.027799     -0.522487
Ti       5.76874      1.94724     11.13526        -0.329869     -0.673102      0.911667
Ti       5.81370     13.60837     11.21587        -0.102767      0.269682      2.004432
Ti       5.81254      5.76744      2.26111         0.036640      0.559450      0.712660
Ti       5.69285      5.77374     15.68935         1.208428      0.404399      0.393822
Ti       5.78473      5.73734      6.73404         0.695719      0.298907      0.105230
Ti       5.87102      5.74871     11.05169        -1.754143      2.168775     -0.392606
Ti       5.81847      9.73668      2.27405        -0.221118     -0.004098      0.168272
Ti       5.80250      9.66445     15.63523         0.227384     -0.191008      0.994993
Ti       5.83466      9.67707      6.77019        -0.155676      0.532931      0.172811
Ti       5.84625      9.71839     11.21829         0.250200     -0.989759      1.799181
Ti       9.78556      2.01162      2.30900        -0.749995     -0.459853      1.929535
Ti       9.60374      1.87290     15.57328         1.337884      0.116470      0.641737
Ti       9.65340     13.63028      2.38138         1.634586      0.233379      2.195595
Ti       9.81086     13.54789     15.67249         0.057735      0.527416     -0.252967
Ti       9.67695      1.97668      6.66660         0.052355      0.091234      1.479117
Ti       9.58848     13.64865      6.85268         1.208543     -0.936392     -2.252309
Ti       9.64890      1.87428     11.22379         1.292831     -0.010661      0.763562
Ti       9.75481     13.62961     11.24077        -0.754963     -1.042518      2.012450
Ti       9.74420      5.92184      2.29803        -0.184860      0.065361      1.317438
Ti       9.66052      5.85083     15.60451         0.664348     -0.013254     -1.140237
Ti       9.70974      5.91258      6.76810         0.768195     -0.482328     -1.250978
Ti       9.72321      5.75074     11.26072         1.103181      0.824036      0.178341
Ti       9.64927      9.81640      2.40571         0.211346     -0.270037      0.342402
Ti       9.64250      9.70330     15.60973         1.944011      0.969590      0.078220
Ti       9.71987      9.70855      6.77506         0.170069      0.544431     -0.216815
Ti       9.80767      9.68954     11.17270        -0.171415      0.844910      2.977537
O       2.09839      1.79898      0.62781        -0.024784      0.479005     -0.375609
O       1.98085      1.97937     13.66941        -0.298610     -0.293932      1.979107
O       1.76999     13.66530      0.71031         0.340147     -0.187765     -1.105380
O       1.94139     13.49184     13.89106        -0.209665      0.063414     -0.863090
O      13.66951      1.91982      0.51891        -0.174079      0.342102      0.959236
O      13.68676      1.96838     13.93513         0.081221     -0.384321     -0.255787
O      13.69842     13.59401      0.69265        -0.275656     -0.186320     -0.702057
O      13.66297     13.60162     13.92452        -0.026042      0.257978     -1.313130
O       1.85380      1.89923      4.97349         0.077998      0.083907      0.304807
O       1.69158     13.70310      5.22295         0.329471     -0.041237     -1.374352
O      13.51561      1.92066      5.00584        -0.127565      0.282128      0.271055
O      13.42515     13.73741      5.23480         0.351439     -0.419638      0.116796
O       1.86030      1.90188      9.48849         0.145171     -0.065570     -1.362261
O       1.74846     13.73736      9.51354         0.444549     -0.254561     -0.932248
O      13.61718      1.94234      9.55056        -0.171489      0.114355     -1.046664
O      13.45300     13.69789      9.47469         0.181606      0.258239     -0.121328
O       1.77772      5.87093      0.55690         0.396935     -0.125847      0.804621
O       1.89949      5.70807     13.91004         0.140577      0.310817      0.385946
O      13.55478      5.95336      0.60849         0.319909     -0.283189      0.725240
O      13.62029      6.05643     13.90827         0.140815     -0.142187     -0.448161
O       1.93295      5.77949      4.98748        -0.098838     -0.020413      1.495217
O      13.68370      5.80488      5.19864        -0.062796     -0.211609     -1.610357
O       1.92657      5.87743      9.41291        -0.123570      0.153337     -0.196300
O      13.59805      5.80457      9.51801         0.005283     -0.014648     -1.365426
O       1.74615      9.79335      0.72728         0.250030     -0.512190     -0.652380
O       1.77916      9.77459     13.85292         0.322630     -0.403695      0.526435
O      13.54592      9.86999      0.81742         0.115903     -0.408071      0.289589
O      13.54324      9.88993     13.94776         0.320847     -0.498093     -0.707935
O       1.94509      9.68203      4.98347        -0.125643      0.296933      0.627662
O      13.61481      9.59701      4.99740        -0.150975      0.428555      0.897095
O       2.03948      9.68842      9.45087        -0.322148     -0.040288     -0.855862
O      13.49506      9.76354      9.39934         0.254820      0.000721     -1.928363
O       5.80801      1.88789      0.60200        -0.207865      0.462596     -0.340295
O       5.85190      2.05682     13.73999         0.337963     -0.256879     -0.182961
O       5.84037     13.60222      0.52192        -0.161505      0.137321      0.635552
O       5.71809     13.54898     13.87316         0.507568      0.231664      0.181818
O       5.73631      1.86703      5.04920         0.043579     -0.079930     -0.875454
O       5.74683     13.55711      5.02355        -0.141901      0.024764      0.155689
O       5.67274      1.95077      9.40696         0.207776     -0.266402     -0.056418
O       5.74239     13.70208      9.51790         0.081077     -0.257160     -1.240523
O       5.76050      5.78859      0.55214        -0.110759     -0.190260     -0.374108
O       5.75029      5.88335     13.97308         0.175839     -0.277524     -0.338674
O       5.77511      5.69696      4.97125         0.090313      0.342721      0.713173
O       5.81084      5.84597      9.28279         0.147075     -0.040492      0.551765
O       5.83172      9.75253      0.53142        -0.071526     -0.019548      0.595394
O       5.77319      9.68285     13.90811        -0.053371     -0.067735     -0.374544
O       5.85740      9.73136      5.03860        -0.133343      0.330980     -0.918281
O       5.86067      9.74175      9.50894        -0.071356      0.181847     -0.678611
O       9.83038      2.08603      0.63479        -0.185580     -0.239358     -1.711278
O       9.61190      1.94090     13.85639        -0.148116     -0.016504     -0.478759
O       9.67930     13.79065      0.69707         0.072193     -0.463048     -2.216236
O       9.70462     13.46151     13.94768        -0.052501      0.318101     -0.032301
O       9.66076      2.07878      4.96718         0.098633     -0.173249     -1.296421
O       9.73764     13.49520      5.05605        -0.514657      0.502698      1.250354
O       9.74080      1.98442      9.50111        -0.184011     -0.473913     -0.458385
O       9.77908     13.62997      9.53940        -0.336334      0.420482     -1.954608
O       9.92352      5.83786      0.60959        -0.344489      0.229186     -1.041587
O       9.50005      5.80828     13.79868         0.459945     -0.113412      0.776151
O       9.66244      5.82477      4.98087         0.205023      0.069086      0.669444
O       9.77682      5.85818      9.51711        -0.349554     -0.095054     -0.125033
O       9.65749      9.80609      0.68697         0.133177     -0.171417     -0.472954
O       9.75154      9.88746     13.86812        -0.125067     -0.354724      0.411506
O       9.61232      9.65686      5.04078        -0.117222      0.275817     -0.003406
O       9.63716      9.67162      9.49703        -0.050504     -0.160996     -1.996882
O       3.87740      1.85852      2.94532        -0.294622      0.728691     -0.858995
O       4.01827      1.93923     15.85898        -1.405935      0.059667      0.577451
O       3.76668     13.68077      2.66442         1.264765     -0.588169      0.558644
O       3.88186     13.63728     15.98121         0.168981     -0.847131      0.389053
O      15.47352      1.82250      2.79060        -0.002783      0.704737     -0.160210
O       0.11162      1.90273     15.90391        -0.470354      0.050068      0.567446
O      15.52743     13.63710      2.85430         0.214468     -0.225975      0.424896
O      15.58656     13.68518     16.06328         1.810683     -0.288787     -0.148587
O       3.79598      1.83946      7.22584         0.388840     -0.121277     -0.352716
O       3.84884     13.70230      7.31675        -0.165100      0.034428     -0.545769
O      15.46540      2.07680      7.14485         0.853701     -0.483346     -0.139404
O      15.48301     13.57689      7.40536        -0.173720      0.415799     -0.055680
O       3.80708      2.00356     11.68363         1.170585     -0.223924     -0.745269
O       3.76280     13.50796     11.71106         1.053076     -0.055983     -0.384514
O       0.03313      1.94229     11.60116        -0.949432     -0.093258      0.248686
O      15.49057     13.52757     11.64600         0.136247      0.956040      0.021389
O       3.76984      5.83035      2.66919         0.536875     -0.248701      0.145899
O       3.83015      5.90888     16.03298         0.046331     -0.438127      0.303732
O      15.55214      5.82828      2.80531        -0.586962     -0.043249      0.094467
O      15.57496      5.83557     16.03165        -0.006387      0.059263      0.306799
O       3.93786      5.83171      7.18371        -1.018238      0.420239     -0.067300
O      15.57034      5.79956      7.26688         1.029334     -0.192884     -0.249136
O       3.87547      5.96073     11.55477        -0.326273     -0.618712      0.005034
O      15.50005      5.95139     11.74450         0.478057     -0.695429     -0.573839
O       3.79347      9.72249      2.71771         1.203219      0.063362      0.214309
O       3.85069      9.70260     16.07215        -0.393105      0.010151     -0.273837
O      15.50814      9.76758      2.95472        -0.001082     -0.503582     -0.249730
O      15.53716      9.75960     16.21685         0.080800     -0.856119     -0.650704
O       3.82083      9.74328      7.08253        -0.222251      0.378181      0.384752
O      15.47449      9.73557      7.14662         1.690145      0.197834      0.237921
O       3.80436      9.71612     11.74983         0.383995      0.466792     -0.715347
O      15.50966      9.72969     11.57465         0.617899     -0.156169     -0.068667
O       7.76971      1.92400      2.77950         0.212008      0.097863     -0.226215
O       7.81131      1.93101     16.06967        -0.413917     -0.025895     -0.381194
O       7.81763     13.67765      2.80307        -1.921547      0.172745      0.007240
O       7.74918     13.59524     16.15207         0.229850      0.133356     -0.679201
O       7.77274      2.03514      7.18930        -0.205841      0.085014      0.014272
O       7.70482     13.56061      7.19457        -0.103072      0.135535      0.470254
O       7.77202      1.84380     11.51346        -0.786281      0.418806      0.195316
O       7.69639     13.70656     11.59992         0.379605     -0.113628      0.026574
O       7.70853      5.76908      2.60405        -0.111001     -0.057409      0.274002
O       7.82728      5.86372     16.09975        -0.503287      0.124068     -0.087731
O       7.82927      5.79261      7.13500        -0.968144      0.215269      0.256114
O       7.70098      5.91497     11.51864         0.837457     -0.403737      0.091516
O       7.70404      9.80911      2.83307        -1.047603     -0.478274     -0.176298
O       7.84065      9.66907     16.03100        -1.205989      0.376260     -0.169344
O       7.72291      9.81360      7.26763         0.467880     -0.449439      0.044663
O       7.83002      9.59902     11.77162        -0.723043      0.663997     -0.905957
O      11.63163      1.92015      2.78865         0.623755      0.403758      0.003393
O      11.74513      1.85053     15.92507        -0.826000      0.462230      0.267025
O      11.68412     13.55559      2.90348        -0.239498     -0.316409     -0.243874
O      11.72375     13.69431     16.06721        -0.395538     -0.458105      0.064234
O      11.56264      1.90908      7.15174         0.019748      0.051649      0.176133
O      11.52538     13.63435      7.33983         0.116893      0.495141      0.124622
O      11.66684      1.97110     11.72236         0.162354     -0.565070     -0.089028
O      11.63541     13.62698     11.62704         0.701837      0.347330      0.249756
O      11.65077      5.87546      2.76511         0.502282      0.220742      0.408627
O      11.69518      5.72210     16.00036        -0.243959      0.721871     -0.236175
O      11.63812      5.88537      7.26404         0.441027     -0.020252     -0.094352
O      11.64162      5.85027     11.76645        -0.203917     -0.119774     -0.384171
O      11.52716      9.80247      2.89453         1.081575     -0.452460      0.063084
O      11.69444      9.93061     16.12162        -0.077184     -0.720136      0.095777
O      11.67749      9.59834      7.15910        -0.354636      0.401055     -0.027298
O      11.74799      9.81905     11.68205        -1.554585     -0.648559     -0.354608
O       1.79770      3.86124      2.66674         0.297589     -0.012166      0.272291
O       1.94084      3.79942     16.00630         0.415111      0.486607      0.484720
O       1.88569      0.02974      2.77836        -0.255543     -0.796823      0.420157
O       2.03628     15.58495     15.95403        -0.073778     -0.425820     -0.033383
O      13.57535      3.88113      2.64111         0.089422      0.311605      0.450227
O      13.74054      3.91936     15.92340        -0.156183     -0.661937      0.688763
O      13.49992     15.51321      2.70124         0.081766      1.162370      0.453209
O      13.74024     15.53228     16.13342        -0.275471      0.722405     -0.294309
O       2.05809      3.87205      7.25558        -0.680882      0.196496     -0.556884
O       1.74808      0.05386      7.32604         0.328279     -0.391974     -0.296184
O      13.52291      3.84234      7.38762         0.318698      0.532551     -0.815109
O      13.45580      0.03020      7.16693         0.388187     -0.010712      0.875382
O       1.86161      3.94227     11.61791        -0.026469      0.155861     -0.394506
O       1.98640     15.50664     11.64522        -0.461509      0.449422      0.046847
O      13.54152      3.94863     11.77290         0.654553     -0.536557     -0.466415
O      13.64191      0.04425     11.62275        -0.105810     -0.494967      0.244244
O       1.81411      7.78214      2.90482         0.117429     -0.490224     -0.619259
O       1.84742      7.74000     16.10423         0.210989      0.745074     -0.367382
O      13.64054      7.75579      3.02145        -0.375185     -0.048035     -1.002045
O      13.55243      7.74446     16.21848         0.604169      1.122252     -0.931417
O       1.91526      7.75916      7.22248         0.164038      0.202702     -0.565981
O      13.69564      7.77667      7.26426        -0.217442     -0.214980     -0.006136
O       1.83967      7.74486     11.62765         0.165667      0.809630      0.022366
O      13.59825      7.84341     11.55836        -0.366387     -0.430612      0.345148
O       1.89181     11.59543      2.76544        -0.107325      1.400934      0.866279
O       1.81299     11.56304     16.05575         0.794849      1.091506      0.049649
O      13.64114     11.62820      3.08171        -0.277479      0.671360     -0.491464
O      13.72328     11.69960     16.10605        -0.216047      0.485524      0.080674
O       1.86917     11.72334      7.23971         0.119671     -0.774901     -0.092018
O      13.47638     11.69981      7.25563         0.376882     -0.397446     -0.181435
O       1.73791     11.60821     11.56736         0.983621      0.127085     -0.112340
O      13.54951     11.64073     11.67639         0.464078      1.112497     -0.528518
O       5.72691      3.79178      2.95588         0.627675      1.047616     -1.569788
O       5.89547      3.84343     16.07337        -0.329882      0.470078     -0.382277
O       5.72500     15.56136      2.70685         0.495323     -0.111448      0.215217
O       5.86293     15.59681     15.99872         0.146183     -0.600057     -0.459075
O       5.68506      3.83922      7.08050         0.324728      0.559621      0.264023
O       5.94548      0.03262      7.12841        -0.581675     -1.058122      0.410780
O       5.77531      3.92809     11.44816         0.355719     -0.798826      0.185529
O       5.77184      0.01207     11.67820        -0.431510     -0.058722     -0.286324
O       5.71511      7.72211      2.82032         0.712669      0.507751     -0.924421
O       5.84187      7.79042     16.22783        -0.323259     -0.238496     -0.751379
O       5.75732      7.89440      7.14642         0.404021     -1.661814      0.186279
O       5.73745      7.80487     11.67794         0.375396      0.348968     -0.463737
O       5.79952     11.73510      2.67842        -0.362862     -0.460692      0.307446
O       5.90075     11.56256     16.02836        -0.526009      0.993328      0.012995
O       5.81444     11.74161      7.29395        -0.351502     -0.320184     -0.249645
O       5.85992     11.69497     11.82160        -0.333741     -0.746589     -1.167095
O       9.74699      3.97123      2.77636        -0.087453     -0.571639      0.027226
O       9.70328      3.98573     16.08896         0.202363     -1.399852     -0.468000
O       9.76307     15.55016      2.77574        -0.186606      1.054183      0.368889
O       9.72287     15.58630     16.11136        -0.191180      0.029717     -0.534289
O       9.78793      3.92926      7.15766        -0.128466     -0.198509      0.098639
O       9.47836      0.00152      7.03428         0.674368     -0.105348      0.279904
O       9.78023      3.81953     11.62370        -0.977598      0.587524     -0.102203
O       9.77196     15.52206     11.86306        -0.398205      0.462333     -0.869735
O       9.50465      7.82851      2.83599         0.714170     -0.455137     -0.387854
O       9.78789      7.84843     15.93957         0.216025     -0.716370      0.163274
O       9.72677      7.81334      7.19160        -0.596578     -0.323118      0.294528
O       9.82692      7.79624     11.74950        -0.530427     -0.241695     -0.637548
O       9.56464     11.73571      2.72854         0.288372     -0.474147      0.256227
O       9.72572     11.72955     16.30399        -0.241028     -0.067036     -0.804804
O       9.70063     11.65222      7.22811        -0.100133     -0.059156      0.291493
O       9.63870     11.66313     11.62919         0.069197      0.187609     -0.343828
