  # total energy = -7879.11228915 
CRSYTAL
PRIMVEC
    15.2000000000000000    0.0000000000000000    0.0000000000000000
     0.0000000000000000   15.2000000000000000    0.0000000000000000
     0.0000000000000000    0.0000000000000000    17.000000000000000
PRESSURE
7.86087 7.90867 6.21146 0.194023 -0.044268 0.034723
PRIMCOORD
320 1
Pb       3.76492      3.74110      4.13808         0.123010      0.161071      0.330157
Pb       3.92264      3.84665     16.94778        -0.460136      0.001978     -0.038848
Pb       3.68348      0.06461      4.27947         0.682528     -0.128092     -0.282290
Pb       3.78099     15.18275     16.97813        -0.154247     -0.357990     -0.298248
Pb       0.02196      3.86478      4.25342         0.012539      0.051582     -0.417433
Pb      15.17494      3.67022      0.08773        -0.570092      0.459358     -0.540687
Pb       0.02166      0.09696      4.29849        -0.120491     -0.498798     -0.384516
Pb      15.07203     15.14540      0.01783         0.502978      0.274170     -0.026786
Pb       4.02685      3.73646      8.49818        -0.986523     -0.224733      0.002304
Pb       3.77897     15.06188      8.70611         0.144217     -0.013882     -0.748114
Pb       0.13685      3.78327      8.49033        -0.504590     -0.282692      0.043072
Pb      15.16343     15.03722      8.52026         0.022587      0.438195     -0.222372
Pb       3.71927      3.82987     12.72024         0.220506      0.046620      0.154437
Pb       3.60125      0.05151     12.80248         0.771106     -0.157094     -0.106625
Pb      15.14010      3.80577     12.66225        -0.047796      0.309045      0.338549
Pb      15.19306      0.15022     12.82499        -0.273814     -0.922427     -0.050750
Pb       3.79668      7.46289      4.19296        -0.065455      0.454096     -0.087168
Pb       3.84959      7.55317     16.99645        -0.453077      0.063322     -0.220803
Pb      15.18745      7.61658      4.16816        -0.030010      0.098787     -0.075500
Pb      15.10968      7.55059     16.89567        -0.249997      0.498602      0.459986
Pb       3.86246      7.66904      8.41929        -0.326049      0.086790     -0.151662
Pb       0.03172      7.50814      8.37718        -0.664705      0.649385      0.377549
Pb       3.72083      7.54838     12.65749        -0.048738      0.227967      0.665854
Pb      15.18826      7.59248     12.60069        -0.352894     -0.221309      0.547108
Pb       3.66146     11.26127      4.24924         0.188772      0.277079     -0.184739
Pb       3.86104     11.30580      0.26515        -0.065824      0.634947     -1.164393
Pb       0.01561     11.39637      4.19373        -0.280529     -0.174777     -0.383904
Pb       0.00668     11.40218      0.08086        -0.213523     -0.356364     -0.169700
Pb       3.86616     11.34231      8.56092         0.037469      0.480747     -0.552023
Pb      15.15999     11.38045      8.44050         0.049475     -0.091615     -0.027852
Pb       3.62188     11.29891     12.88975         0.102996      0.259489     -0.149302
Pb      15.16870     11.30973     12.83356        -0.064774     -0.023411     -0.390248
Pb       7.46204      3.62415      4.20048         0.186663      0.567153     -0.273223
Pb       7.54271      3.73295     16.87381        -0.005021      0.217925      0.456198
Pb       7.58161     15.08449      4.29808        -0.224725      0.633534     -0.369001
Pb       7.64872     15.11823     16.97074        -0.387464     -0.085391      0.185808
Pb       7.61390      3.79150      8.53337         0.011922     -0.554907     -0.189987
Pb       7.65121     15.15366      8.39701        -0.215967      0.460116      0.556947
Pb       7.58405      3.90597     12.78229        -0.402217     -0.691941     -0.114380
Pb       7.61752      0.04096     12.72064        -0.294685      0.043157      0.517433
Pb       7.70613      7.45083      4.29177        -0.030557     -0.252183     -0.832450
Pb       7.50278      7.72052     16.89239         0.857936     -0.184136      0.668406
Pb       7.57769      7.61873      8.47052         0.337527     -0.038797      0.018350
Pb       7.53997      7.66014     12.74659        -0.124034     -0.246587     -0.293431
Pb       7.54054     11.20752      4.34434         0.605933      0.794919     -1.064064
Pb       7.74073     11.44647     16.88142        -0.454246     -0.397255      0.489435
Pb       7.61685     11.43987      8.53790        -0.238805     -0.086457      0.001219
Pb       7.52154     11.31802     12.68352         0.582345      0.370309      0.461417
Pb      11.28406      3.73902      4.28402         0.061017      0.465915     -0.444232
Pb      11.31999      3.64936      0.01768         0.392920      0.798003      0.095157
Pb      11.37517     15.13858      4.26715         0.034165     -0.164762     -0.124601
Pb      11.40168     15.09822     16.98567         0.026447      0.301860      0.294955
Pb      11.43065      3.84707      8.50845        -0.022162     -0.423416     -0.107950
Pb      11.41484      0.03096      8.25270         0.008906     -0.378349      0.652389
Pb      11.32465      3.83627     12.77703         0.251030     -0.305677     -0.458269
Pb      11.47525      0.02807     12.59612        -0.703349     -0.367965      0.718593
Pb      11.38302      7.63470      4.22271         0.092598     -0.495791     -0.427132
Pb      11.26451      7.50051     16.90277         0.561918      0.720347      0.289373
Pb      11.31625      7.52530      8.46970         0.202021      0.562876     -0.256601
Pb      11.36716      7.58587     12.67209         0.346952      0.273558     -0.035656
Pb      11.30157     11.18801      4.30105         0.469153      1.213830     -0.766257
Pb      11.36877     11.58787     16.89495         0.210600     -1.088561      0.463529
Pb      11.50574     11.43373      8.49209        -0.384920     -0.320038      0.323612
Pb      11.40334     11.51973     12.58292        -0.468185     -0.566784      0.715244
Ti       1.82542      1.93722      2.09626         1.133674     -0.030070      0.397239
Ti       1.89534      1.98011     14.97937        -0.502646     -0.375329      1.219805
Ti       1.87465     13.32660      2.25828        -0.351566     -0.527215      0.108639
Ti       1.85031     13.37517     15.06841         0.631792     -1.152859      0.879101
Ti      13.28456      1.87394      2.29922        -0.565963      0.433800     -0.294115
Ti      13.30325      1.91948     15.02277         0.069400     -0.271890      0.097576
Ti      13.25112     13.31081      2.29935        -0.122167     -1.151118      1.127747
Ti      13.36038     13.27390     14.95055        -0.736125     -0.164920     -0.307657
Ti       1.91071      1.84609      6.62021        -0.379682      0.287683      1.047829
Ti       1.87118     13.30411      6.42489         0.229771     -0.356595      2.501439
Ti      13.36530      1.93465      6.35165        -0.300949     -0.645588      1.868233
Ti      13.27034     13.24809      6.42091         0.324179     -0.108068      0.851382
Ti       1.88224      1.87943     10.76334         0.681896     -0.418496     -0.633775
Ti       1.85655     13.26786     10.76741        -0.919579     -0.475538     -0.239047
Ti      13.31418      1.85620     10.74311        -0.687983      0.748774      1.328769
Ti      13.32078     13.28984     10.74608        -0.571460     -0.156157     -0.263720
Ti       1.88177      5.69704      2.14097        -0.091065     -0.237422      1.015681
Ti       1.79512      5.70459     15.06089         0.938785      0.429683     -1.066987
Ti      13.23593      5.71924      2.18231         0.227266     -0.314565      1.538789
Ti      13.22817      5.70106     14.90147         0.509511      0.055197      0.262939
Ti       1.87731      5.69193      6.52740         0.143402     -0.375947      0.696647
Ti      13.26997      5.66803      6.41159        -0.374746      1.017380      1.116858
Ti       1.82250      5.67458     10.67621        -0.435495     -0.044769      0.500957
Ti      13.16640      5.61463     10.67957         0.814479      0.892107      1.812434
Ti       1.94430      9.38517      2.06399        -1.601722      1.090690      2.247020
Ti       1.92726      9.52450     15.10330        -0.920722      0.125266      0.990325
Ti      13.26965      9.48319      2.18204         1.564854      0.405369     -0.513486
Ti      13.28854      9.51622     14.98359         0.501150     -0.251407     -0.252921
Ti       1.87529      9.54630      6.46107         0.088405     -0.550619      0.544191
Ti      13.28283      9.44743      6.46182        -0.008398     -0.069601      2.062025
Ti       1.82869      9.46932     10.60509         0.340876      0.023814      0.925142
Ti      13.26186      9.45962     10.69966         0.014541     -0.094028     -0.302572
Ti       5.59665      1.85683      2.11662         1.775115     -0.156448      1.023968
Ti       5.62680      1.85638     14.94029         1.076625      0.499093     -0.000238
Ti       5.62887     13.25643      2.23834         0.990370      0.798230      0.495916
Ti       5.65449     13.33457     14.97399        -0.204389     -0.794036      1.161063
Ti       5.65459      1.81868      6.54577         0.834448     -0.259365      0.148470
Ti       5.67056     13.28007      6.39396        -0.533827      0.501645      0.795277
Ti       5.73519      1.85073     10.79973        -0.113051     -0.022742      0.655710
Ti       5.60984     13.21911     10.99918         0.351696      0.629626     -0.991589
Ti       5.67953      5.70454      2.27393         1.680510     -0.008245      2.036742
Ti       5.69649      5.80151     15.06515        -0.872469     -0.988272     -1.114721
Ti       5.63936      5.69897      6.45059         0.799926     -0.286639     -0.398097
Ti       5.63565      5.66781     10.68145         0.432944      1.393389      1.440825
Ti       5.73787      9.50070      2.25027         0.066579     -0.007847     -0.334331
Ti       5.66803      9.58187     15.00454         0.142758     -0.004542      0.759537
Ti       5.76305      9.52151      6.36237        -1.708314      0.237526      1.061455
Ti       5.63156      9.47415     10.75646        -0.120935      0.104872      0.530323
Ti       9.41952      1.87946      2.25641        -0.480444     -0.478773      1.702559
Ti       9.49692      1.90401     14.97027        -0.623853     -0.604534     -0.661526
Ti       9.43912     13.31419      2.29888         0.507791     -0.580780      0.387364
Ti       9.50946     13.35623     14.89616         0.060911     -1.013703     -0.236683
Ti       9.51554      1.90268      6.42244        -1.108275     -0.619011      0.603167
Ti       9.46071     13.20588      6.48310         0.979048      0.187825     -0.346588
Ti       9.53781      1.91193     10.70481        -1.459813     -0.331293      0.334829
Ti       9.42585     13.36939     10.71649         0.357725     -0.733125      1.468424
Ti       9.52221      5.65898      2.20793        -1.048954     -0.258612      0.651360
Ti       9.49897      5.65854     14.94268         0.001022      0.488631      1.330182
Ti       9.41230      5.59236      6.49530         0.682125      1.089959     -0.683044
Ti       9.40066      5.71184     10.70328         0.126029     -0.018818      0.546901
Ti       9.45164      9.49232      2.08548         0.443719      0.142693      1.216190
Ti       9.56911      9.44407     14.79035         0.305658      1.504466      1.712787
Ti       9.47421      9.49908      6.46960         0.895116     -0.818064      0.467972
Ti       9.47096      9.48534     10.69879         0.302559      0.355127      0.534069
O       1.87452      1.99342      0.33938         0.123540     -0.027935      0.047983
O       1.76836      1.89474     13.21944         0.453027     -0.158605     -1.007212
O       1.86036     13.31272      0.49630         0.120682      0.253046      0.274389
O       1.86800     13.45851     13.32303        -0.393207     -0.471133     -1.288813
O      13.30982      1.88650      0.50124        -0.078596     -0.170850     -0.093392
O      13.31398      1.91156     13.22826        -0.233248      0.086432      0.412491
O      13.11348     13.27661      0.54667         0.534428      0.630462     -1.063005
O      13.42534     13.30470     13.17994        -0.356493     -0.215826     -0.068778
O       1.87180      1.85954      4.87004        -0.080621     -0.009407     -1.298761
O       1.89585     13.31827      4.70172         0.060488      0.147193     -1.636040
O      13.49962      1.94481      4.63233        -0.089525     -0.150027     -1.215435
O      13.26402     13.16436      4.70179         0.247351      0.150647     -0.610810
O       1.89505      1.80549      8.98107         0.050474      0.475765      0.360767
O       1.76603     13.30045      8.95794         0.561072     -0.109523      1.174515
O      13.20843      2.03715      9.06123        -0.116246     -0.267981     -1.833053
O      13.23568     13.26650      8.96225         0.348209      0.136294     -0.317655
O       1.96008      5.68062      0.42138        -0.330784     -0.386563     -0.654855
O       1.92607      5.84478     13.26322        -0.305092     -0.581041     -0.334960
O      13.08326      5.77752      0.47172         0.528209     -0.327606     -0.671920
O      13.14868      5.69290     13.09828         0.284274     -0.215362      1.200927
O       1.83648      5.63899      4.80254         0.220705      0.139563     -1.488255
O      13.21968      5.82884      4.68593         0.400736     -0.383074     -0.628983
O       1.85667      5.55484      8.92700         0.207782      0.435234     -0.378683
O      13.14787      5.59542      8.95008         0.197776     -0.037059     -1.330068
O       1.83404      9.52310      0.35144         0.301471     -0.108765     -0.703853
O       2.01390      9.49913     13.35679        -0.317914     -0.199925     -1.241365
O      13.48200      9.45672      0.44354        -0.689841      0.079937     -0.660673
O      13.27668      9.50055     13.19861         0.428184      0.160023     -0.719761
O       1.96478      9.65181      4.72162        -0.472028     -0.768531     -1.204181
O      13.28632      9.50547      4.73917        -0.212417     -0.194017     -1.875665
O       1.86475      9.51252      8.87682         0.174848     -0.108061     -1.215172
O      13.29916      9.51024      8.91471        -0.089031     -0.230766      0.711073
O       5.71291      1.96608      0.36380        -0.077949     -0.297891     -1.009206
O       5.68610      1.86849     13.19514        -0.166436      0.385266     -0.479830
O       5.68083     13.22221      0.46983        -0.271276      0.375461     -0.346141
O       5.74579     13.29308     13.25385        -0.441208      0.064319     -1.437205
O       5.66513      1.84406      4.78950        -0.360608     -0.057065     -0.244125
O       5.71148     13.31750      4.63393        -0.115450     -0.087876      0.306866
O       5.73794      1.86079      9.03653        -0.196127      0.284641     -0.922952
O       5.62948     13.09835      9.19654        -0.123887      0.155208      0.208413
O       5.74868      5.76005      0.58234        -0.094877     -0.204867     -3.388811
O       5.66867      5.91947     13.30274        -0.012231     -0.545369     -0.332750
O       5.59340      5.75049      4.64566         0.462913     -0.012923      1.051702
O       5.75822      5.79993      8.95144        -0.523004     -0.421936     -1.080437
O       5.72180      9.58703      0.44309        -0.008122     -0.322319      0.231945
O       5.60806      9.37871     13.26136         0.030267      0.211283     -0.507395
O       5.73415      9.61756      4.60381        -0.158444     -0.541065     -0.224565
O       5.67025      9.70780      8.99776        -0.115222     -0.440062     -0.600834
O       9.28497      1.79048      0.52768         0.641039      0.306593     -1.335087
O       9.48930      1.93902     13.21099         0.359663      0.236896     -0.153533
O       9.58758     13.42161      0.50993        -0.244827     -0.090561     -0.322130
O       9.60008     13.38251     13.14867        -0.473747     -0.462842      0.435101
O       9.28661      1.98572      4.66770         0.775192     -0.002990      0.206165
O       9.42149     13.13005      4.72127         0.160088      0.155758     -0.239314
O       9.45670      1.79830      8.94684         0.292883     -0.042416     -0.456235
O       9.51733     13.36360      8.98782        -0.351996     -0.028622     -1.547867
O       9.45958      5.79120      0.46795         0.286770     -0.521059     -1.218912
O       9.50989      5.60527     13.21745         0.002451      0.011948     -1.441987
O       9.37110      5.52064      4.69442         0.465923      0.367669      1.054274
O       9.34833      5.82084      8.96047         0.299781     -0.170202     -1.138027
O       9.47551      9.49851      0.35504         0.028298     -0.270069      0.117400
O       9.49271      9.49986     13.05279        -0.052794      0.069631     -0.380559
O       9.57810      9.64837      4.65510        -0.619975     -0.850100      0.292437
O       9.49438      9.44500      8.92170        -0.430704     -0.050801      0.348630
O       3.83146      2.13453      2.43476        -2.317804     -0.519868      0.438045
O       3.75944      1.77975     15.20009         0.207666     -0.027058      0.467960
O       3.79584     13.12262      2.54054        -1.171761      0.191362      0.244749
O       3.74877     13.32418     15.37791         0.987929      0.460825      0.169387
O       0.00920      1.87539      2.46223         0.367169     -0.467765      0.556451
O       0.00945      1.97660     15.38718        -0.552271     -0.025253      0.085413
O      15.16613     13.36197      2.69060         0.906055      0.511476     -0.162941
O      15.15071     13.29767     15.52906         0.228747     -0.359529     -0.250878
O       3.80066      1.86681      6.90976        -0.073336     -0.169173      0.402528
O       3.72149     13.37837      6.88882         1.037216     -0.502411     -0.239231
O      15.13837      1.83816      6.99802         0.235931      0.371281     -0.441874
O       0.00336     13.31384      6.85554        -0.687721     -0.198987     -0.188604
O       3.85023      1.85095     11.10840        -1.671310      0.478791      0.254955
O       3.67771     13.26055     11.20892         0.423989      0.346164      0.043830
O      15.17962      1.84810     11.12043         0.071652      0.522450     -0.091732
O      15.13600     13.28297     11.13341         1.132271     -0.255749     -0.065871
O       3.82590      5.59690      2.58993        -1.569953      0.213604      0.166237
O       3.76748      5.69945     15.39101         0.921934      0.567807      0.426442
O      15.17838      5.85821      2.60196         0.222419     -0.669022     -0.363167
O      15.15207      5.61396     15.38946        -0.767841     -0.276473     -0.161560
O       3.82272      5.66180      6.78061        -0.168057      0.359321      0.603189
O      15.18139      5.65983      6.90154        -0.414564     -0.307978     -0.277621
O       3.69507      5.84975     11.05236         0.899435     -0.729296     -0.235331
O      15.10920      5.62673     11.07379         0.742368     -0.241571     -0.076576
O       3.80761      9.57806      2.58863        -0.178924      0.154882     -0.336660
O       3.77188      9.50813     15.55135         0.674048     -0.048989     -0.389569
O       0.04378      9.21021      2.45421         0.378124      0.625228      0.659203
O      15.17877      9.64784     15.33671         0.589982     -0.479363      0.011702
O       3.83227      9.57134      6.66362         0.053189     -0.293369      0.873506
O      15.17165      9.40239      6.80436         0.109609      0.281490      0.086075
O       3.72333      9.37371     10.97943         0.000339     -0.039781      0.150727
O      15.17577      9.52946     11.03660        -0.590440      0.198379      0.488115
O       7.47351      1.65348      2.60350         0.910324      0.746901      0.067975
O       7.59560      2.14507     15.22828         0.066253     -1.039742      0.130755
O       7.58205     13.52928      2.56153        -0.142876     -0.306079     -0.220449
O       7.56397     13.22356     15.47978         0.922254      0.405487     -0.963213
O       7.56955      1.81367      6.90232         0.420233      0.607769     -0.061012
O       7.66792     13.33076      6.86393        -1.725045     -0.639856      0.059379
O       7.58133      2.03273     11.20193         0.565258     -0.103327     -0.169371
O       7.53367     13.25822     11.25010         0.026344     -0.247469     -0.465422
O       7.67384      5.68489      2.73562        -1.478907      0.313958     -0.243233
O       7.63304      5.69623     15.31505        -0.660291      0.002804      0.121899
O       7.60008      5.73105      6.91229        -1.297237     -0.323555     -0.290067
O       7.54186      5.73915     11.11962        -0.176621     -0.646720      0.217262
O       7.58130      9.36575      2.57052         0.753924      0.142577      0.197858
O       7.68148      9.48207     15.34381        -0.881145      0.308527     -0.663732
O       7.56335      9.59982      6.76338         0.149906     -0.043550      0.102484
O       7.55582      9.55878     11.06656         0.135391      0.114617      0.059336
O      11.37766      1.98409      2.72700        -0.029588     -0.339778     -0.436628
O      11.40018      1.85426     15.58356        -0.177116     -0.368733     -1.150763
O      11.40577     13.28382      2.75516        -0.389649     -0.359191     -0.214177
O      11.44584     13.42645     15.33039        -0.737226      0.062348     -0.041031
O      11.42434      1.78810      6.70472        -0.134819      0.916540     -0.167294
O      11.37217     13.19292      6.85249         0.156405      0.452345     -0.157474
O      11.31199      1.93966     11.14073         1.876013     -0.664948      0.058488
O      11.30763     13.31763     11.05430         1.085648      0.648242      0.220051
O      11.38760      5.57949      2.73678        -0.134540     -0.043291     -0.265379
O      11.39918      5.66957     15.43908        -0.417074      0.028375     -0.683381
O      11.32720      5.79649      6.83272         0.069532     -0.649722     -0.033743
O      11.31140      5.80605     11.07304         0.313521     -0.567278     -0.144665
O      11.45118      9.58554      2.44615        -2.062479     -0.179820      0.574289
O      11.48286      9.45715     15.26406        -2.164451     -0.083886      0.202875
O      11.34373      9.43570      6.90074         0.541529      0.053425     -0.550478
O      11.36197      9.43531     11.05789         0.238301     -0.086981     -0.085574
O       1.81540      3.80082      2.60564        -0.190156      0.209444      0.105385
O       2.01802      3.82434     15.23429        -0.215808     -0.649148      0.397881
O       2.02727      0.08692      2.59904        -0.096498     -0.418380     -0.114279
O       1.85938      0.00419     15.49904        -0.360215      0.984360     -0.139275
O      13.43100      3.73759      2.54018        -0.173235      1.347477      0.236213
O      13.24128      3.79654     15.43383        -0.148361     -0.109724     -0.217801
O      13.27778     15.17937      2.74795        -0.025422      0.664991     -0.164703
O      13.44250     15.17034     15.30395        -0.578670      0.977405      0.305147
O       1.89357      3.76693      6.90002        -0.008665     -0.068929      0.197139
O       1.83990     15.17655      7.04549         0.150276     -0.101738     -0.746146
O      13.23356      3.80087      6.66096        -0.105678     -0.296622      0.452039
O      13.29070     15.14711      6.71809        -0.053314      0.373516      0.089808
O       1.88203      3.72103     11.13368         0.094484      1.228947      0.032675
O       1.82499     15.19371     11.16030         0.288430     -0.329242     -0.117021
O      13.27673      3.78572     11.17690        -0.528488     -0.401424     -0.181091
O      13.30792     15.17939     11.09261        -0.302278      0.538881     -0.017299
O       2.01526      7.55185      2.53665         0.471259     -0.124147      0.238860
O       1.81306      7.53528     15.45418         0.333938      1.432926     -0.024564
O      13.17083      7.60574      2.58975        -0.182589     -0.607730      0.416159
O      13.32551      7.58290     15.32517         0.069393     -0.763511     -0.208446
O       1.83850      7.59207      6.83348         0.804770     -0.218093      0.200632
O      13.29985      7.56386      6.84409        -0.112740     -0.202051      0.165690
O       1.69471      7.54974     10.99009         0.441683      0.427615     -0.111391
O      13.35109      7.53809     11.10846        -0.431887      0.757587     -0.452661
O       1.73597     11.35894      2.51351         0.435542     -0.005954      0.053857
O       1.91120     11.46682     15.37860        -0.049872     -0.622786     -0.018577
O      13.47833     11.37867      2.51924        -0.119648     -0.095624      0.307822
O      13.17996     11.39939     15.34006         0.507992      0.904724      0.030777
O       1.78509     11.36538      6.78251         0.276619      1.185124      0.279446
O      13.31903     11.34197      6.91715        -0.112188      0.358691     -0.374199
O       1.88074     11.30462     11.12608         0.026991      1.068637      0.186963
O      13.15960     11.43299     11.05870         0.591780     -1.060487      0.003311
O       5.70502      3.82752      2.57751         0.538506     -1.020483      0.103249
O       5.58299      3.78406     15.26731         0.275562      0.901062      0.355504
O       5.44677      0.04521      2.68507        -0.093390     -0.719811     -0.626953
O       5.80825     15.17749     15.30042        -0.231785      0.789720      0.439319
O       5.71903      3.76386      6.86901         0.090663      0.719200      0.042056
O       5.73856     15.10594      7.01561        -0.542396      0.126003     -0.460031
O       5.63104      3.87591     11.10902        -0.275258     -0.391074      0.074086
O       5.64714      0.01941     11.19233         0.258082     -1.081111     -0.205114
O       5.60087      7.60785      2.58155         0.070119      0.185048      0.348894
O       5.62366      7.66377     15.43848         0.497705     -0.482650      0.176188
O       5.69764      7.65212      6.89828        -0.039824     -0.317088     -0.586583
O       5.79054      7.63469     11.09980        -0.552990     -0.581638     -0.239910
O       5.87263     11.41282      2.55289        -0.254680     -0.360076      0.260632
O       5.67141     11.39966     15.26084        -0.054486      0.063569      0.262838
O       5.69340     11.47838      6.88523         0.087809     -0.651977     -0.277173
O       5.51407     11.31789     11.37480         0.376581      0.263967     -0.360026
O       9.36046      3.74151      2.60039         0.313245     -0.362898     -0.272091
O       9.58326      3.77358     15.23376         0.191838      0.518185      0.816101
O       9.62194     15.17321      2.72228        -0.219457      0.586014      0.052409
O       9.36223     15.18440     15.20580         0.116501      0.752590      0.744187
O       9.48712      3.76770      7.02578         0.001855     -0.107318     -0.556894
O       9.46345      0.01762      6.68173         0.455979     -0.718869      0.342761
O       9.62048      3.80243     10.87893        -0.697253      0.647065      0.611268
O       9.39972      0.00967     11.25857         0.317251      0.509647     -1.003489
O       9.45799      7.52212      2.50916         0.858369      1.585079      0.688477
O       9.54265      7.63306     15.17792        -0.035864     -1.082955      0.138649
O       9.36516      7.62355      6.79326         0.097680     -0.501676     -0.158390
O       9.42441      7.54583     11.15266        -0.102583      1.339855     -0.143982
O       9.40521     11.39777      2.55431        -0.072670     -0.369040     -0.227063
O       9.59729     11.43245     15.39510        -0.285707     -0.008280     -0.946782
O       9.50908     11.30435      6.94162        -0.240412      1.416786     -0.105546
O       9.51948     11.43593     11.11824        -0.467851     -0.653311     -0.482852
