  # total energy = -7883.02049249 
CRSYTAL
PRIMVEC
    15.3600000000000000    0.0000000000000000    0.0000000000000000
     0.0000000000000000   15.3600000000000000    0.0000000000000000
     0.0000000000000000    0.0000000000000000    17.440000000000000
PRESSURE
1.032 0.784268 0.653595 0.276154 0.169739 -0.03672
PRIMCOORD
320 1
Pb       3.75032      3.83730      4.32058         0.793627     -0.056127     -0.211457
Pb       3.83138      3.83236     17.36520         0.283009      0.576795      0.537195
Pb       3.81530      0.02347      4.26945        -0.168907      0.007167     -0.264547
Pb       3.72252      0.04970      0.02197         0.192780     -0.333922     -0.489154
Pb      15.35587      3.75820      4.37012        -0.370063     -0.036413     -0.347033
Pb       0.03394      3.94588     17.37919        -0.507639     -0.264052      0.750549
Pb      15.32070     15.29135      4.30146         0.210460      0.084409     -0.199059
Pb      15.25035     15.28460      0.00283         0.328948      0.028598     -0.332336
Pb       3.78106      3.73794      8.76138         0.032412      0.539717     -0.234654
Pb       3.89256     15.34331      8.65178        -0.315905     -0.186118      0.019311
Pb      15.33041      3.78895      8.69826        -0.642171      0.088621     -0.717319
Pb      15.29554      0.04413      8.66351        -0.093224     -0.373013     -0.289105
Pb       3.65216      3.78754     13.03743         0.069077      0.509232      0.312619
Pb       3.73399     15.26373     13.03800         0.788895     -0.160018      0.362630
Pb      15.34457      3.80623     13.04718        -0.282864     -0.155700     -0.161050
Pb       0.04488      0.00562     13.01402        -0.486479      0.213456      0.485098
Pb       3.82990      7.63177      4.28729         0.283096      0.114847      0.519597
Pb       3.76719      7.62419     17.35330         0.273566     -0.076528      0.417322
Pb       0.01945      7.73080      4.37998        -0.149754     -0.135575      0.002052
Pb      15.14121      7.70116     17.32495         1.490655      0.187595      0.524920
Pb       3.92559      7.64470      8.76039        -0.272971     -0.326379     -0.489913
Pb       0.07541      7.60208      8.69482        -0.301955      0.312278     -0.112338
Pb       3.76890      7.62739     12.98131         0.175819      0.296375     -0.101133
Pb       0.04550      7.63040     13.06458         0.002789      0.500845     -0.802729
Pb       3.76089     11.55049      4.22093         0.403931      0.069918      0.134848
Pb       3.94991     11.52211     17.42265        -0.253434      0.221815     -0.076042
Pb      15.28623     11.57405      4.33496         0.734913     -0.352849      0.370645
Pb      15.29811     11.57158     17.32853         0.467747     -0.426931     -0.126947
Pb       3.80561     11.54808      8.61412        -0.337799     -0.203583      0.465498
Pb      15.25698     11.38714      8.64620         0.521312      0.354636      0.372628
Pb       3.82357     11.53253     13.14925        -0.063026     -0.067739     -0.471666
Pb       0.00997     11.54373     13.13533         0.161290     -0.291276     -0.432293
Pb       7.71504      3.74302      4.42322        -0.330948      0.471542     -0.536262
Pb       7.64764      3.90927     17.34421        -0.215910      0.069090      0.024524
Pb       7.73772      0.08919      4.28052        -0.287981     -0.438102     -0.007482
Pb       7.68883      0.04730     17.37108        -0.085875     -0.419018     -0.031949
Pb       7.72098      3.69345      8.76167        -0.234024      0.548557     -0.019807
Pb       7.62610     15.17828      8.62885         0.256813      0.311568      0.153841
Pb       7.72664      3.82903     13.19557         0.177814     -0.153736     -0.606638
Pb       7.56673      0.06084     13.10259         0.775022     -0.801441      0.011844
Pb       7.64993      7.59349      4.30404        -0.441694      0.404794      0.020409
Pb       7.70770      7.69412     17.40039        -0.166849     -0.018838     -0.295061
Pb       7.58307      7.69799      8.65982         0.170675      0.077000     -0.262608
Pb       7.51254      7.64636     12.98998         0.308337      0.154358      0.284081
Pb       7.67053     11.54297      4.33365        -0.068458     -0.113489     -0.110327
Pb       7.76984     11.50155      0.07985        -0.379993     -0.060435     -0.763129
Pb       7.47235     11.47994      8.61010         0.780514     -0.074020     -0.477056
Pb       7.64963     11.40089     13.09169         0.302641      0.458155      0.065611
Pb      11.43683      3.80705      4.34464         0.064308      0.059089      0.056284
Pb      11.67405      3.84523     17.37105        -0.489961     -0.118303      0.323290
Pb      11.39870     15.30315      4.27727         0.254347      0.582685      0.297512
Pb      11.53527     15.32185     17.40451        -0.558485     -0.109691     -0.322652
Pb      11.39959      3.85150      8.71274         0.854188     -0.182437     -0.101598
Pb      11.52707     15.25353      8.65520         0.066435      0.188320      0.151079
Pb      11.57414      3.78623     13.10658        -0.133970     -0.012329     -0.456703
Pb      11.61174     15.35496     12.90593        -0.887077     -0.228635      0.861024
Pb      11.41350      7.77221      4.29176         0.878553     -0.348404      0.225477
Pb      11.59746      7.60098     17.39293        -0.666737      0.089832     -0.051817
Pb      11.41655      7.62184      8.71683         0.584850      0.370078      0.016235
Pb      11.48037      7.71423     12.93619         0.012832     -0.242534      0.206521
Pb      11.54749     11.46472      4.38919        -0.109323     -0.416389     -0.109652
Pb      11.49631     11.46916     17.42123         0.179855      0.063782     -0.556185
Pb      11.58416     11.52697      8.65696        -0.137889     -0.442121     -0.025809
Pb      11.49728     11.44854     12.98771        -0.033317      0.204523     -0.069414
Ti       1.88378      1.94614      2.23888         0.104671     -0.764403      0.688814
Ti       1.82930      1.97723     15.47033         0.005148     -0.746910     -0.615126
Ti       1.87557     13.41439      2.25812         0.538815      0.339453     -0.138762
Ti       1.99572     13.46971     15.39008        -0.641598     -0.782917      1.499387
Ti      13.38855      1.86099      2.26582         0.006280      0.426088     -0.301780
Ti      13.39023      1.84779     15.43332        -0.046838      0.028228      0.608773
Ti      13.28582     13.39628      2.30659         1.857771     -0.248611      1.855814
Ti      13.44547     13.38124     15.35138        -0.263796      0.258727      0.654023
Ti       1.84142      1.84531      6.62488        -0.245272     -0.031567     -0.467856
Ti       1.89706     13.37492      6.67182        -0.757410      0.519903      1.533017
Ti      13.34328      1.83521      6.62817         0.530161      1.099272      0.785270
Ti      13.44998     13.37553      6.52759         0.402210      0.658378      1.984449
Ti       1.89551      1.88843     11.02398        -0.920870      0.276349      0.568020
Ti       1.85400     13.47267     11.01597         1.624471     -0.864220      0.530706
Ti      13.39342      1.92597     11.00117         0.440921      0.425994     -1.409703
Ti      13.49940     13.41759     11.06818        -0.961333     -0.802366     -0.969490
Ti       1.89913      5.71433      2.34709        -0.179975      0.824053     -0.357948
Ti       1.85076      5.77383     15.38312         1.052033      0.327237      1.983639
Ti      13.41793      5.71110      2.43073        -0.393825      0.622024     -0.174772
Ti      13.42008      5.71720     15.26179        -0.199102     -0.500175      0.630739
Ti       1.91140      5.72358      6.60622         0.338223      0.018337      0.686274
Ti      13.40921      5.80781      6.65709        -0.037689     -1.213598      2.374523
Ti       1.89071      5.72627     11.03018         0.312939      0.480172     -0.018957
Ti      13.41850      5.71207     11.08892         0.110878      0.402285     -0.964725
Ti       2.02574      9.54174      2.31745        -0.911436      0.440784     -1.711259
Ti       2.03181      9.59906     15.39874        -1.252443      0.127511     -0.213280
Ti      13.60819      9.54523      2.31902        -1.681541      0.142024      0.836769
Ti      13.45804      9.51094     15.29172         0.108652      1.377547     -0.040390
Ti       2.02428      9.55834      6.68907        -0.943303     -0.169931      0.626726
Ti      13.48061      9.55134      6.66978        -0.539461     -0.273249      0.341608
Ti       1.93311      9.67472     11.11474        -0.012591      0.128760     -0.448043
Ti      13.42974      9.59695     11.04082         0.707596      0.217304     -1.086878
Ti       5.73479      1.91806      2.27893         0.146629      1.067498      0.947737
Ti       5.71305      1.89273     15.28477         0.129725     -0.697153      1.922443
Ti       5.72300     13.45554      2.25803        -0.187265     -0.043734      0.537899
Ti       5.78236     13.40332     15.38147         0.434596     -0.255862      1.303503
Ti       5.68344      1.95318      6.67481         0.461987     -0.312036      0.742601
Ti       5.69458     13.46798      6.58048         1.038322     -0.324611     -0.798885
Ti       5.68961      1.94880     11.22864         0.949653     -1.186781     -0.431208
Ti       5.80822     13.34474     11.10486        -0.465141      1.244504      0.754545
Ti       5.71832      5.76510      2.33769         0.732086     -0.463811     -1.249636
Ti       5.72841      5.70336     15.28872         0.052456      1.066825      1.028044
Ti       5.70855      5.69615      6.76719        -0.251508      0.838382      0.199122
Ti       5.80636      5.61972     11.09732        -1.603069      1.250300     -1.377539
Ti       5.76236      9.61082      2.27218         1.110192     -0.161147     -0.160156
Ti       5.78849      9.53937     15.42015         0.358927      0.442030      0.740391
Ti       5.73422      9.63912      6.51152         0.674047     -0.420224      0.320244
Ti       5.74662      9.56195     10.96882        -1.347369     -0.295506      0.065632
Ti       9.55483      1.95755      2.24670         0.581997     -0.118428      1.419039
Ti       9.54684      1.95847     15.36040         1.235066     -1.108943      0.114776
Ti       9.53950     13.43687      2.25939         0.094720      0.393773      0.791567
Ti       9.55391     13.43882     15.39141         0.586810     -0.309857      0.979084
Ti       9.53799      1.83601      6.78596         0.769011      0.847383     -0.374750
Ti       9.61153     13.33326      6.60122         0.023231      0.244785      0.441556
Ti       9.55810      1.91685     11.11246         0.457493     -0.857959      0.844261
Ti       9.59178     13.37732     11.05588         0.097211      0.509315     -0.241482
Ti       9.51532      5.77204      2.28384         0.777751     -0.721584      0.715031
Ti       9.63533      5.74413     15.29613        -0.632993      0.990705      0.318665
Ti       9.53925      5.80007      6.74365         0.961148     -0.824513      1.126881
Ti       9.55843      5.72252     11.05246         0.627698      0.513118      0.626569
Ti       9.65396      9.63403      2.38628        -0.425776      0.457639      0.025540
Ti       9.63005      9.59477     15.37967         0.051316     -0.104765      0.584378
Ti       9.59270      9.55481      6.60471         1.031302      0.516306     -0.132147
Ti       9.51705      9.53857     10.92608         0.816001      0.478856     -1.165054
O       1.88075      1.91709      0.49031         0.396977     -0.083082     -0.673112
O       1.77796      2.13328     13.65204         0.305405     -0.629906      1.363589
O       1.90952     13.51781      0.49418         0.076561     -0.062396     -0.306893
O       1.99821     13.43694     13.67955        -0.225127      0.326299     -1.640970
O      13.33514      1.90270      0.46501         0.118443     -0.051900      1.240803
O      13.44001      1.95561     13.69673        -0.067510     -0.202825     -0.738725
O      13.42111     13.31358      0.59645         0.130330      0.077219     -1.005712
O      13.57733     13.47559     13.61527        -0.327221     -0.189556     -0.485652
O       1.76098      1.85495      4.80966         0.258823      0.307487      1.080042
O       1.79389     13.34510      4.96593         0.570380      0.160582     -1.252585
O      13.46265      1.86118      4.87086         0.075020     -0.076416     -0.529714
O      13.45264     13.46605      4.78421         0.046435     -0.012784     -0.473003
O       1.77584      1.85073      9.29698         0.721432      0.047179     -0.710062
O       1.98572     13.37086      9.28538        -0.095056      0.425792     -0.017270
O      13.43882      1.94763      9.19069        -0.059799     -0.176913      1.304421
O      13.36160     13.29103      9.27423         0.281329      0.446215      1.268288
O       1.86459      5.67823      0.57947         0.005088      0.433498      0.310360
O       1.88603      5.74983     13.67825        -0.016666     -0.319585     -1.725434
O      13.28880      5.77367      0.64329         0.471343      0.048530     -0.108806
O      13.38594      5.68419     13.52856         0.315523      0.255888      0.236310
O       2.11267      5.74546      4.83473        -0.707239     -0.202689      0.238019
O      13.44466      5.83362      4.95424        -0.189427     -0.097022     -1.302368
O       2.03267      5.75910      9.27833        -0.499515     -0.183465      0.418590
O      13.39247      5.71257      9.30699         0.268034     -0.048446      0.748421
O       1.94688      9.50714      0.49135         0.052439     -0.012101      1.752108
O       2.01408      9.53259     13.57760         0.073978      0.154247      1.159561
O      13.55277      9.63510      0.54622        -0.005805     -0.381742     -0.041197
O      13.44456      9.55536     13.50633         0.059524     -0.036256      0.833156
O       1.99111      9.47948      4.96998         0.032959      0.404430     -0.989111
O      13.49989      9.44764      4.91605        -0.004286      0.157285      0.235275
O       1.80901      9.78147      9.35447         0.743037     -0.411534     -0.214920
O      13.46330      9.71175      9.20979         0.362529     -0.101371      1.077386
O       5.79404      1.97336      0.53311        -0.099392     -0.065237     -0.161023
O       5.92596      1.77424     13.55563        -0.847503      1.127113      0.187583
O       5.60471     13.46359      0.51806         0.164846      0.437923     -0.126420
O       5.87267     13.33368     13.64304        -0.082867     -0.075208     -0.484355
O       5.76905      1.93243      4.96755         0.257156      0.044670     -0.904613
O       5.77048     13.38867      4.81398        -0.366807      0.198191      0.484449
O       5.49532      1.93934      9.50707         0.697505     -0.174916     -1.390378
O       5.80175     13.51197      9.32939         0.094165     -0.518759      0.171477
O       5.78032      5.77953      0.54999         0.175049     -0.180721      0.164874
O       5.82903      5.70396     13.53159        -0.083629      0.042030     -0.029722
O       5.65948      5.71309      5.02986         0.459922      0.019052     -0.338098
O       5.55409      5.64003      9.28124         0.444468      0.321785      0.603597
O       5.91571      9.45087      0.46596        -0.491120      0.369886      1.098325
O       5.70475      9.63045     13.66819         0.273015     -0.095318     -0.148061
O       5.79430      9.72649      4.76372        -0.124390     -0.121164     -0.064379
O       5.84208      9.62954      9.18063        -0.399870     -0.101459      0.571339
O       9.55690      1.90595      0.55312        -0.205324      0.328296     -1.722000
O       9.63693      1.92926     13.58752        -0.165921     -0.108412      0.239245
O       9.64085     13.49654      0.53178        -0.159931     -0.437088     -0.294104
O       9.56824     13.26974     13.66284         0.162556      0.243834     -0.456599
O       9.58743      1.97273      5.02194        -0.360379     -0.148123     -0.100396
O       9.77699     13.53586      4.85459        -0.584387     -0.421257      0.416671
O       9.66844      1.86364      9.40067        -0.592105      0.248857     -1.496809
O       9.52963     13.33940      9.26033         0.018161      0.094537      0.663803
O       9.71047      5.74170      0.54812        -0.454491     -0.071844      0.027468
O       9.56666      5.92387     13.54256         0.015016     -0.416975      0.131334
O       9.68765      5.75101      5.01223        -0.531666     -0.138807     -0.784157
O       9.66823      5.78861      9.31871        -0.200735     -0.089084     -0.106395
O       9.64441      9.60526      0.61456        -0.033827      0.089808      0.345533
O       9.69345      9.56516     13.63045        -0.338088      0.102849     -0.288031
O       9.78616      9.63123      4.80383        -0.762534     -0.282633      0.016552
O       9.60607      9.50322      9.13176        -0.696029      0.308180      0.869204
O       3.86468      1.93844      2.76201        -0.229636     -0.082041     -0.376756
O       3.78538      2.04853     15.84676         0.417342     -0.809799     -0.848850
O       3.78472     13.48821      2.75673         0.631938     -0.040148      0.021162
O       3.88499     13.44719     15.70788        -0.131699     -0.247005      0.366554
O       0.01539      1.95288      2.50743        -0.789259     -0.073994      0.625262
O      15.31419      1.82881     15.92365         0.389683      0.454013     -0.382448
O       0.08572     13.40294      2.80576        -0.807074      0.078418     -0.473956
O      15.34525     13.48847     15.82033        -0.099398     -0.309411      0.073110
O       3.77598      1.84501      7.01247         0.141311      0.222052      0.197047
O       3.88454     13.44389      7.10626        -0.799339      0.131828     -0.185480
O      15.29592      1.87489      7.11046         0.661803     -0.118136     -0.212899
O      15.30372     13.50727      7.09468         0.218312     -0.499479     -0.498787
O       3.82547      2.08809     11.48434        -0.846056     -0.686086      0.398965
O       3.90868     13.48371     11.55108        -0.066442     -0.068846     -0.325228
O      15.33657      1.81073     11.33837        -0.262685      0.132507      0.591681
O       0.03942     13.46089     11.49676        -0.552307      0.519257     -0.176305
O       3.91702      5.79526      2.68391        -1.874039      0.000141      0.338031
O       3.83173      5.77975     15.86643         0.160921     -0.500089     -0.755195
O       0.01600      5.72658      2.83328        -0.014330      0.066270     -0.262598
O      15.35840      5.83301     15.80406        -1.143467     -0.679422     -0.352920
O       3.77405      5.77183      7.10101         0.624490     -0.218626      0.225369
O       0.01849      5.78382      7.09488        -0.281564     -0.176433     -0.243144
O       3.81618      5.61864     11.47898        -0.510881     -0.194305      0.240466
O       0.00374      5.69149     11.51381         0.354347      0.485564     -0.191785
O       3.90097      9.56697      2.80235        -0.528224     -0.025248     -0.700725
O       3.86250      9.66571     15.95193         0.307664     -0.698415     -0.759907
O       0.01962      9.57316      2.86193         1.573054     -0.082304     -0.524492
O       0.04154      9.56794     15.75009        -0.661788     -0.278709     -0.168761
O       3.90541      9.59871      7.00554        -1.052247     -0.045798      0.405596
O       0.06126      9.64525      7.07314        -0.460297     -0.504775     -0.062423
O       3.84210      9.53863     11.48219         0.487037      0.611365     -0.201983
O       0.11986      9.67241     11.43112        -1.665590     -0.236441      0.712476
O       7.71730      2.02069      2.79234        -0.940543     -0.428815     -0.068283
O       7.69957      1.89811     15.84370        -1.046841      0.426662     -0.547234
O       7.66877     13.39502      2.64872        -0.354205      0.193404     -0.029504
O       7.67379     13.37629     15.95103        -0.011647      0.554117     -0.396506
O       7.67176      1.92303      7.24563        -0.880809     -0.129136     -0.247771
O       7.62941     13.33595      6.92661         0.311065      0.263994      0.530686
O       7.72440      1.89203     11.56259        -0.388161     -0.074690     -0.253429
O       7.74047     13.52141     11.60758        -0.310458     -0.788930     -0.904068
O       7.58257      5.61369      2.71698         1.981498      0.438905      0.376105
O       7.70012      5.74173     15.72999        -0.032781     -0.193057      0.050339
O       7.71925      5.76376      7.29842        -1.399755     -0.129439     -0.656328
O       7.64073      5.91525     11.33250         0.865679     -0.137659      0.188908
O       7.69730      9.76745      2.82017         0.070214     -0.234255     -0.529783
O       7.71693      9.63420     15.83244         0.049351     -0.320400     -0.302241
O       7.72000      9.61145      6.87694        -1.036042      0.059614      0.393932
O       7.56315      9.44508     11.30893         1.503202      0.157042      0.423834
O      11.41799      1.90599      2.71982         1.784791     -0.240773     -0.107105
O      11.48777      1.86148     15.91587        -0.104560      0.363722     -0.656124
O      11.51399     13.56424      2.69348        -0.375547     -0.706441     -0.256591
O      11.54081     13.35887     15.88638        -0.264460      0.240226     -0.483507
O      11.49741      1.88277      7.08424        -0.619727     -0.096633      0.058456
O      11.57383     13.45441      7.10818        -1.111729     -0.241608     -0.543890
O      11.52838      1.97967     11.43356         0.089362      0.372200      0.477388
O      11.62908     13.27974     11.48815        -1.223635      0.305732     -0.046847
O      11.52134      5.81430      2.79826        -0.836152     -0.027015     -0.128091
O      11.49433      5.76208     15.78677         0.827262     -0.112496     -0.287667
O      11.47594      5.70765      7.33549         0.097151      0.484908     -1.393396
O      11.56321      5.70938     11.58907        -0.916412      0.066254     -0.567374
O      11.61707      9.66489      2.76218        -1.018719     -0.552322     -0.401096
O      11.58751      9.64655     15.76354        -0.018697     -0.353386      0.082590
O      11.53836      9.65063      6.93145         0.108296     -0.371386      0.461647
O      11.55965      9.70038     11.08830        -0.319481     -0.316106      1.299500
O       1.95728      3.86403      2.66505         0.072649     -0.611410      0.410834
O       1.87664      3.87791     16.01127        -0.174874     -0.474376     -1.215234
O       2.05116      0.02766      2.63120        -0.748833      0.071570      0.079005
O       1.91727     15.29813     15.73504         0.228026      2.159645      0.349478
O      13.43107      3.80792      2.68240        -0.132937     -0.503474      0.313880
O      13.43241      3.83781     15.75844         0.063851      0.340570      0.035346
O      13.52660     15.27851      2.70371        -0.246984      1.063383     -0.528239
O      13.36599     15.31284     15.79180         0.269215      0.059735      0.170530
O       1.86648      3.77825      7.09840         0.076590     -0.026112     -0.466549
O       1.89854     15.27930      7.07592         0.076840      0.991147      0.036596
O      13.42844      3.83506      7.00919         0.099999     -0.003533     -0.006614
O      13.41000     15.31818      7.15016        -0.051654      0.035525     -0.524423
O       1.78632      3.76586     11.47893         0.484930      0.653896     -0.202544
O       1.93891      0.03271     11.58312         0.287864     -0.247632     -0.534476
O      13.49401      3.83267     11.51061        -0.154270     -0.899282     -0.154557
O      13.33774      0.02929     11.45798         0.820041     -0.570822     -0.546713
O       1.98099      7.69305      2.80588        -0.215263     -0.413603     -0.449321
O       1.92354      7.61651     15.83005         0.181360      0.823494     -0.263248
O      13.44545      7.67521      2.83465         0.342934     -0.035904     -0.654101
O      13.43763      7.59153     15.71224        -0.298622      0.889088     -0.020965
O       1.89795      7.62448      7.10592         0.283229      0.535169      0.047781
O      13.41384      7.68002      7.22929         0.190810     -0.070708     -0.491419
O       1.93881      7.69627     11.40500        -0.148427     -1.054042      0.164226
O      13.53587      7.65679     11.44568        -0.258098      0.667036     -0.081164
O       2.03242     11.49896      2.57892        -0.342608     -0.457033      0.334529
O       1.92738     11.50351     15.70124         0.017074     -0.235187      0.238987
O      13.56887     11.42450      2.91541        -1.162395      1.187482     -1.227040
O      13.46381     11.49166     15.83769         0.222930     -0.409888     -0.593995
O       1.92001     11.51672      7.19527         0.415886     -0.130572     -0.733726
O      13.42959     11.52136      6.97445         0.116251     -0.036032     -0.212392
O       1.95658     11.67603     11.58962         0.196716     -1.067053     -0.154077
O      13.53295     11.52366     11.58508         0.266200     -0.292417     -0.379234
O       5.72327      3.85606      2.80942        -0.091189     -0.732898     -0.153959
O       5.73265      3.85772     15.72768         0.416964     -0.853656     -0.127000
O       5.77159      0.02903      2.78065         0.153316      0.109781     -0.353354
O       5.72527     15.34988     15.72634         0.173482      1.020617     -0.003808
O       5.71962      3.82527      7.11292         0.040651     -0.439317      0.292293
O       5.76487      0.02136      7.07780         0.015721     -0.310704      0.096012
O       5.90729      3.83161     11.50095         0.015415     -0.399178      0.537714
O       5.80827     15.35356     11.61161        -0.531623     -0.117014     -0.485939
O       5.84271      7.73162      2.75058         0.161223     -0.532687      0.016137
O       5.79591      7.65441     15.69017        -0.106527     -0.218567      0.053373
O       5.72872      7.74653      7.05407         0.279250     -0.877235      0.228811
O       5.61842      7.61077     11.47875         0.298087      0.374600     -0.367587
O       5.65299     11.54504      2.50028         0.056393     -0.050003      0.340742
O       5.82531     11.52253     15.93160        -0.357630     -0.347365     -0.357761
O       5.63176     11.50119      6.99559         0.788350      0.615669      0.265295
O       5.76912     11.45371     11.51890         0.282216      0.329279     -0.625456
O       9.68180      3.83273      2.81337        -0.655694      0.786168     -0.410279
O       9.62643      3.82127     15.55775        -0.150613      0.535099      0.521319
O       9.58193      0.01179      2.71624        -0.439713      0.048056      0.065481
O       9.56034     15.32918     15.93232         0.182137      0.324639     -0.765306
O       9.50651      3.84391      7.25733         0.368623     -0.481440     -0.360719
O       9.48430     15.31776      7.02756         0.349401     -0.604379      0.345531
O       9.48921      3.88310     11.48421         0.233704     -0.069736      0.025022
O       9.81504     15.29995     11.37960        -0.546508     -0.244875      0.095051
O       9.32095      7.68370      2.65898         1.163250     -0.071200      0.057059
O       9.64730      7.69367     15.80338         0.050778     -0.188648      0.099450
O       9.58097      7.67757      7.04833         0.109812      0.056948      0.116415
O       9.72539      7.72501     11.39201        -0.355885     -0.408385      0.007548
O       9.69391     11.61211      2.81255        -0.030294     -0.772874     -0.454734
O       9.56946     11.53002     15.85526         0.278428     -0.589822      0.166992
O       9.58710     11.44160      6.93162         0.142977      1.465524      0.167443
O       9.54343     11.40182     11.43807        -0.201490      0.535841      0.027643
