  # total energy = -7882.83264746 
CRSYTAL
PRIMVEC
    15.3600000000000000    0.0000000000000000    0.0000000000000000
     0.0000000000000000   15.3600000000000000    0.0000000000000000
     0.0000000000000000    0.0000000000000000    17.440000000000000
PRESSURE
-0.005177 -0.373503 -0.917044 -0.109542 -0.355288 0.023787
PRIMCOORD
320 1
Pb       3.87147      3.78068      4.29814        -0.088868      0.277611     -0.322231
Pb       3.74971      3.85201     17.42956         0.248259     -0.490175     -0.230773
Pb       3.83974     15.31252      4.31565        -0.284528      0.089298     -0.502131
Pb       3.82801     15.26590     17.41583         0.156560      0.398667     -0.417365
Pb       0.02052      3.83154      4.29773        -0.515546      0.005087     -0.432463
Pb      15.26575      3.77288     17.34745         0.112000      0.027408     -0.063362
Pb      15.35112      0.01393      4.38407        -0.517980     -0.100777     -0.494112
Pb       0.13934      0.03255     17.37443        -0.496254     -0.510991     -0.468463
Pb       3.89690      3.81502      8.69613        -0.279669     -0.269867     -0.678033
Pb       3.82875     15.34832      8.55890        -0.115652      0.154732      0.048926
Pb       0.13619      3.82637      8.74049        -0.330830     -0.389799     -0.578912
Pb       0.00509     15.28608      8.69200         0.163502      0.216487     -0.316692
Pb       3.86381      3.87723     13.11325         0.107889      0.430001     -0.612614
Pb       3.93785      0.11067     13.11556        -0.505327     -0.672470     -1.137754
Pb       0.01819      3.86392     12.99446        -1.051275     -0.129696      0.080685
Pb      15.33058     15.30275     13.10546        -0.277211      0.416618     -0.780881
Pb       3.78912      7.65297      4.36712        -0.017659     -0.290902     -0.270590
Pb       3.89593      7.69070     17.37724        -0.102650     -0.312974      0.016647
Pb      15.23415      7.66292      4.32829         0.172877     -0.097153     -0.579029
Pb       0.06934      7.55652      0.02642        -0.556404      0.337152     -0.585878
Pb       3.72550      7.72565      8.60191         0.425463     -0.592085      0.310933
Pb      15.34390      7.72884      8.64079        -0.547715      0.038733     -0.355105
Pb       3.88972      7.70456     13.02675        -0.486873     -0.302555     -0.366671
Pb      15.26243      7.66860     13.00000        -0.054079     -0.289759     -0.146344
Pb       3.93552     11.46379      4.41069        -0.127538      0.053783     -0.681803
Pb       3.68598     11.59430      0.00205         0.080190     -0.162334     -0.530670
Pb      15.26279     11.38187      4.42868        -0.154328      0.081882     -0.615098
Pb       0.02422     11.47290      0.02599        -0.033413      0.050719     -0.294074
Pb       3.88877     11.44344      8.63411        -0.575522      0.517450      0.444980
Pb       0.00386     11.62077      8.68167        -0.110776     -0.371131     -0.107902
Pb       3.77335     11.52088     13.07476        -0.156214      0.114265     -0.885176
Pb      15.29085     11.49891     12.96670        -0.193593      0.007364     -0.217162
Pb       7.60194      3.89862      4.25407         0.458737     -0.330138     -0.323735
Pb       7.59346      3.77204      0.06074         0.382421      0.164087     -0.230822
Pb       7.58595     15.24591      4.40502         0.912405      0.313252     -0.809816
Pb       7.81172     15.30626     17.43949        -0.422767     -0.206131      0.286233
Pb       7.66477      3.86802      8.63221         0.062663     -0.222710     -0.277739
Pb       7.66559      0.11335      8.73603         0.234268     -0.754898     -0.565500
Pb       7.63765      3.75273     12.97044         0.160222      0.752803     -0.386147
Pb       7.63409     15.27560     13.10050         0.197043     -0.457338     -0.716759
Pb       7.71548      7.74048      4.39544        -0.062552     -0.161388     -0.585311
Pb       7.61673      7.70408     17.38442         0.219283     -0.635256     -0.130321
Pb       7.75762      7.53144      8.73973        -0.419336      0.500642     -0.600604
Pb       7.76897      7.71862     13.12724         0.402615     -0.441465     -1.014292
Pb       7.63840     11.49289      4.35950         0.393693     -0.041658     -1.127620
Pb       7.67018     11.41737     17.37141        -0.014343      0.447015     -0.209748
Pb       7.66579     11.56753      8.72456         0.036482      0.075820     -0.102368
Pb       7.55899     11.46019     13.01351         0.353476      0.364322     -0.195938
Pb      11.50269      3.92331      4.32286        -0.066045     -0.622131     -0.511690
Pb      11.47640      3.82996     17.42597        -0.258749     -0.517233     -0.756884
Pb      11.56815     15.35614      4.44556        -0.313067      0.061340     -0.763310
Pb      11.53422      0.02351      0.05253        -0.128303     -0.071208     -0.636259
Pb      11.56230      3.68521      8.68254        -0.221850      0.194678     -0.423134
Pb      11.52720      0.10311      8.73412        -0.563417     -0.440167     -0.728355
Pb      11.49809      3.82117     12.95231         0.019909     -0.002496     -0.144324
Pb      11.50843     15.35689     13.11243         0.241237      0.230081     -0.354467
Pb      11.50821      7.61789      4.42264         0.038005      0.049009     -0.851027
Pb      11.48769      7.74521     17.35700        -0.168303     -0.142770     -0.531002
Pb      11.53027      7.67356      8.68242         0.130354      0.337469     -0.175396
Pb      11.56894      7.60535     13.15430        -0.362611      0.359969     -0.990710
Pb      11.46437     11.57050      4.28966        -0.210653     -0.031798     -0.353805
Pb      11.52534     11.50279     17.41534        -0.088212     -0.028026     -0.241445
Pb      11.51167     11.51904      8.64477         0.015538     -0.096026     -0.440666
Pb      11.51746     11.56906     13.12454         0.106294     -0.794405     -0.753792
Ti       1.85860      1.86536      2.30722         0.158702      0.427814      0.058115
Ti       1.92516      1.85361     15.25141        -0.303509      0.135764      2.600710
Ti       1.88361     13.32487      2.42244         0.046055      0.713638      0.124991
Ti       1.86185     13.37167     15.21103        -0.166664      0.138624      0.986313
Ti      13.35545      1.85070      2.25863        -0.593477     -0.047482      0.936170
Ti      13.39429      1.84713     15.40439        -1.053171     -0.066193     -1.046928
Ti      13.50790     13.36171      2.26821        -1.282295      0.637438      1.249910
Ti      13.45226     13.36565     15.40342        -0.269681      0.987695      1.047214
Ti       1.84332      1.90834      6.56293         0.741971     -0.234760      2.484891
Ti       1.91996     13.39410      6.58632        -0.516918      0.518266      0.776100
Ti      13.41654      1.87958      6.64495        -0.223016      0.295967     -1.248066
Ti      13.41866     13.40076      6.59824        -0.414879     -0.010317      1.006268
Ti       1.91657      1.96753     11.05003        -0.642502     -1.975337      0.341930
Ti       1.83324     13.41393     11.04123         0.838759      0.654185      0.793946
Ti      13.38382      1.90246     10.96383         0.267817     -0.111308      1.317790
Ti      13.35391     13.44832     10.88194         0.523449     -0.102809      0.936527
Ti       1.87845      5.72505      2.27244         0.078716      0.650040      2.007550
Ti       1.85526      5.66673     15.36897         0.485852      0.463707     -0.432799
Ti      13.40923      5.65914      2.19533        -0.060965      0.429933      0.143846
Ti      13.38719      5.74409     15.37199         0.008093     -0.361556      0.699358
Ti       1.87088      5.73213      6.56388         0.664238     -0.914924      0.381878
Ti      13.43187      5.71421      6.69460         0.051821     -0.185221      0.174784
Ti       1.85859      5.71031     10.98899         0.141613      0.395039      2.016742
Ti      13.37520      5.75789     10.86645        -0.206746      0.526600      0.232580
Ti       1.85928      9.60281      2.38139        -0.387018     -0.480814      0.042031
Ti       1.91198      9.50109     15.39920        -0.662632      1.063141     -0.048240
Ti      13.28804      9.52671      2.24907         1.062092      0.167528      0.825807
Ti      13.47926      9.58993     15.38988        -0.606166     -0.237226      0.910518
Ti       1.86188      9.57632      6.65523        -0.800823      0.507083      0.018860
Ti      13.36083      9.56972      6.56991         0.114432      0.165089      2.271791
Ti       1.81330      9.52921     11.04668         0.504407      1.170865      0.062364
Ti      13.35138      9.57375     10.92596        -1.299463     -0.137095      0.656013
Ti       5.71866      1.82212      2.25366        -0.586149      1.085213     -0.941434
Ti       5.70777      1.94671     15.37588        -0.008996     -0.551610      0.850753
Ti       5.73342     13.42787      2.15284         0.235009     -0.465997      0.007818
Ti       5.71985     13.45764     15.34998         0.278197     -0.518468      2.306306
Ti       5.77503      1.90500      6.60200        -1.136156     -0.215515      0.240332
Ti       5.81693     13.39576      6.63735        -0.830355      0.604355      1.976691
Ti       5.75274      1.85074     11.02924        -0.971737      0.539119     -0.428763
Ti       5.72212     13.43931     10.97304        -0.509266     -0.505710     -0.049738
Ti       5.77219      5.79664      2.39611         0.302230      0.204729     -1.426882
Ti       5.80457      5.69171     15.36833        -1.193712      0.150513      0.068309
Ti       5.73533      5.74251      6.67162        -0.676179     -0.284301     -0.036893
Ti       5.73399      5.73387     10.93558         0.070532     -0.477385      1.659181
Ti       5.66086      9.57132      2.22764         0.521052     -0.308567      1.432250
Ti       5.70206      9.58059     15.33008         0.153471      0.928088      0.861551
Ti       5.71112      9.52644      6.70240         0.455656      0.282168     -0.007263
Ti       5.69952      9.60306     11.01123        -0.134001     -0.331626     -0.526588
Ti       9.53104      1.87362      2.35152         0.399341     -0.083262      0.200241
Ti       9.43238      1.77907     15.29415         2.691624      0.911470      1.015851
Ti       9.61042     13.41387      2.21353        -0.115595      0.045235      0.856921
Ti       9.55691     13.37494     15.44227         0.640073     -0.029158      0.579490
Ti       9.50380      1.91578      6.58524         0.505647     -1.073694     -0.439140
Ti       9.59114     13.37478      6.62378         0.125500      1.640869      0.274709
Ti       9.51688      1.86815     10.98725         1.329187      0.163262     -0.367600
Ti       9.66104     13.35500     10.99717        -1.256923      0.454565     -0.926592
Ti       9.60457      5.76205      2.24635        -0.427857     -0.344735      1.217801
Ti       9.56219      5.58738     15.30756         0.246543      0.490225      0.662925
Ti       9.67914      5.73040      6.55825        -1.092283     -0.167466      0.436169
Ti       9.55238      5.77288     10.89116         0.039874     -0.287641      3.696333
Ti       9.49986      9.53251      2.31962         0.286465      0.796309     -0.051354
Ti       9.55369      9.56806     15.35282         0.881491     -0.587422     -0.553918
Ti       9.51054      9.56492      6.68499         1.242686      0.166425     -1.264924
Ti       9.52317      9.62656     10.97779         1.347714     -1.243641      1.486702
O       1.77253      1.97948      0.52306         0.336458     -0.581707      0.968523
O       1.92145      1.90492     13.53761         0.070576      0.118321     -0.911287
O       1.83934     13.28310      0.65390         0.067748      0.356685     -0.134560
O       1.81740     13.31753     13.44417         0.012145      0.290142      0.274799
O      13.15379      1.86416      0.46884         0.875004      0.239400      0.703238
O      13.37623      1.76661     13.57288        -0.163307      0.105929      1.228192
O      13.49194     13.33122      0.53855         0.165079      0.239544     -0.525891
O      13.43609     13.47928     13.64387        -0.112451     -0.457602     -0.178015
O       1.93256      1.90166      4.85722        -0.430906      0.093261     -1.609552
O       1.96183     13.50435      4.82817        -0.020942     -0.400151     -0.154887
O      13.40419      1.87645      4.80356         0.012286      0.125175      1.860456
O      13.29980     13.45496      4.85499         0.344688     -0.210995      0.009633
O       1.79174      1.93482      9.31348         0.167642      0.029861     -0.528532
O       1.65863     13.37717      9.28444         0.461119      0.336506     -0.117380
O      13.34560      1.92920      9.20625        -0.091533     -0.109253     -0.795304
O      13.44019     13.49489      9.12741        -0.283526     -0.291787     -0.212128
O       1.87956      5.75177      0.53879         0.132124      0.036310     -0.808004
O       1.73107      5.65078     13.58581         0.411081     -0.025308      0.501350
O      13.44858      5.68614      0.40503        -0.220106      0.080616      0.792539
O      13.39103      5.70799     13.60634         0.174023      0.350315      0.298732
O       1.90821      5.73230      4.80216        -0.332963     -0.053819      0.312817
O      13.34874      5.73662      4.91418         0.230875     -0.175513      0.347665
O       1.91668      5.64426      9.28410        -0.083574      0.290394     -1.191473
O      13.23533      5.90663      9.04983         0.797911     -0.643669      1.303082
O       1.95205      9.69609      0.62210        -0.462347     -0.244293     -0.670338
O       1.95147      9.59616     13.64939        -0.095030     -0.073120     -0.570079
O      13.45476      9.53908      0.48898        -0.323300     -0.089397      0.805295
O      13.41109      9.64543     13.62616        -0.068396     -0.110012     -0.106176
O       1.80436      9.76052      4.90188         0.564523     -0.551603      0.164741
O      13.35122      9.63432      4.85634         0.075259     -0.291423     -1.184571
O       1.77710      9.60745      9.28971         0.345493     -0.611461     -0.227224
O      13.29863      9.35604      9.16496         0.304997      0.455457      0.217320
O       5.47681      1.97129      0.46327         0.990708     -0.424428      0.756337
O       5.75715      1.87085     13.58826        -0.266376      0.303045     -0.169006
O       5.73242     13.49576      0.36796        -0.345035     -0.252164      0.599294
O       5.82729     13.46514     13.62663        -0.138491     -0.217516     -0.686386
O       5.87828      1.86258      4.84411        -0.586585      0.099753     -0.468336
O       5.86967     13.40240      4.89245        -0.420482      0.042293     -0.372840
O       5.65758      1.84915      9.26602         0.308953     -0.149346      0.039850
O       5.66204     13.49595      9.20046         0.072483     -0.374820     -0.083376
O       5.81966      5.97909      0.56639        -0.354350     -0.623956      0.948372
O       5.63214      5.54866     13.60908         0.624110      0.285967      0.085362
O       5.61667      5.73445      4.91285         0.696774     -0.080390     -0.434678
O       5.72837      5.69489      9.18981         0.109393      0.179561     -0.702304
O       5.74527      9.34698      0.48306        -0.065878      0.692655      0.030019
O       5.64487      9.79472     13.57338         0.252140     -1.090036      0.056417
O       5.66140      9.61472      4.93527         0.004457      0.106918      0.148783
O       5.62634      9.54434      9.22504         0.112466      0.303520      0.275986
O       9.59190      1.80204      0.56093        -0.156516      0.443898      0.553484
O       9.64073      1.85045     13.52502        -0.677845     -0.325176      0.137972
O       9.55588     13.47446      0.42289         0.018857     -0.448627      0.623114
O       9.48902     13.55430     13.69588         0.242365     -0.494383     -0.752606
O       9.52375      1.86493      4.80364        -0.361820     -0.040740      0.550584
O       9.62921     13.57832      4.85100        -0.610347     -0.575535      0.375446
O       9.64409      1.90820      9.17221        -0.642127     -0.091498      1.082114
O       9.54314     13.32272      9.19782         0.332734     -0.268015      1.109650
O       9.53073      5.65995      0.52990         0.094895      0.123583     -1.604118
O       9.56772      5.59350     13.54777        -0.201482      0.223231      0.601882
O       9.58995      5.83083      4.77866         0.200999      0.012264      1.017509
O       9.34396      5.73766      9.19087         0.344860     -0.019108     -1.380116
O       9.64558      9.60887      0.54613        -0.494996     -0.267588      0.168214
O       9.55866      9.47663     13.56064        -0.181393      0.445610      0.355643
O       9.62499      9.54816      4.84171        -0.674199     -0.204636      1.429961
O       9.65981      9.55677      9.24468        -0.583831      0.275017     -1.275853
O       3.78673      1.90237      2.62066        -0.587363     -0.362159      0.615329
O       3.81701      1.89900     15.81969        -0.759338      0.315352     -0.677996
O       3.82255     13.48536      2.63786        -0.123334      0.019318      0.379263
O       3.71032     13.36548     15.82088         1.209781      0.132742     -0.518676
O      15.22897      1.88790      2.74943         0.901760      0.431298     -0.402643
O      15.35969      1.84176     15.68705        -0.085225     -0.231773      0.210679
O      15.30606     13.34765      2.77699         0.915478      0.139821      0.138248
O       0.01395     13.50526     15.72245        -0.107460     -0.051961      0.127148
O       3.80591      1.86525      6.90561        -0.231986      0.079403      0.389085
O       3.73963     13.48009      7.04044         0.825639     -0.334011     -0.169111
O      15.27863      1.95323      7.05482         0.064837     -0.190554     -0.252251
O       0.00333     13.39894      7.07828        -0.786968     -0.150685     -0.518685
O       3.81788      1.90875     11.37953         0.132545      0.075092      0.478810
O       3.81294     13.42225     11.44442        -0.045708      0.108457     -0.090846
O      15.19284      1.81930     11.47744         1.094684      0.251494     -0.143138
O      15.18857     13.31184     11.40252         0.854444      0.543690      0.077660
O       3.86699      5.86854      2.81562        -0.683652      0.086628     -0.620490
O       3.81802      5.71583     15.60021        -0.461178     -0.246516      0.732850
O      15.35495      5.64890      2.63968        -0.550515      0.221151      0.037953
O      15.33782      5.74972     15.80726         0.042634      0.064722      0.074174
O       3.76969      5.62601      6.88675         0.095638      0.259556      0.949597
O       0.00459      5.58814      7.03286        -0.568447      0.476720     -0.002530
O       3.74435      5.60935     11.45060         0.664676      0.377996     -0.061117
O      15.27641      5.80127     11.37725         0.560488      0.100011     -0.280218
O       3.74590      9.36799      2.68708         1.380296      0.676970      0.130586
O       3.81730      9.55106     15.80545         0.266559      0.342538     -0.078085
O      15.22044      9.59250      2.84404         0.232792      0.297318     -0.401053
O      15.30347      9.51602     15.76212         1.271580      0.095803      0.289799
O       3.77529      9.51125      7.16992        -0.345425      0.549103     -0.558040
O      15.32725      9.56779      7.00730        -0.060627     -0.176725      0.128629
O       3.81382      9.57475     11.43739        -0.255855     -0.182155      0.091723
O      15.23108      9.63186     11.33840         1.175942     -0.402176      0.366665
O       7.55289      1.96102      2.66063         0.901899      0.013654     -0.180352
O       7.63241      1.90878     15.82199        -0.560601     -0.426184     -0.269765
O       7.58703     13.37116      2.60417         0.257861     -0.051953      0.207617
O       7.68886     13.38247     15.87284        -1.009991      0.116982     -0.439954
O       7.59922      1.81516      6.99561         0.848623      0.446507      0.570595
O       7.62126     13.35830      7.19275        -0.045251      0.028146     -0.692330
O       7.62498      1.74861     11.39541         0.976351      0.301773     -0.061531
O       7.63482     13.41275     11.31029         0.879899     -0.196882      0.497710
O       7.67419      5.70119      2.68582        -0.884151     -0.058191      0.454219
O       7.64643      5.65207     15.77863         0.407851      0.334789     -0.172709
O       7.60389      5.75116      6.99155         0.909335      0.080796      0.244027
O       7.61427      5.67551     11.52469         0.301452      0.395240     -0.686558
O       7.62034      9.73269      2.74189        -0.222714     -0.191851     -0.132115
O       7.68446      9.62328     15.70191        -1.042267     -0.372198      0.114679
O       7.62231      9.57948      7.05667         0.072566      0.064968      0.013852
O       7.60829      9.63513     11.38371        -0.077278     -0.512195      0.254272
O      11.41253      1.95615      2.83630         0.621183     -0.425046     -0.623301
O      11.44660      1.83806     15.72978        -0.171724      0.110124      0.035739
O      11.45310     13.44373      2.70637         0.400195     -0.069080     -0.389944
O      11.54235     13.35897     15.76429        -0.452423     -0.175759     -0.065231
O      11.39891      1.87677      7.02379         1.061176     -0.232147      0.202204
O      11.41007     13.35999      7.06213         1.236649      0.450322     -0.068548
O      11.48902      1.95038     11.32810        -0.535067      0.298880      0.264770
O      11.55278     13.26422     11.43448        -1.401805      0.313622      0.010375
O      11.47021      5.80950      2.69876         0.757064     -0.092558     -0.225467
O      11.46433      5.75039     15.68360        -0.154950     -0.390347      0.268812
O      11.47431      5.68735      7.04478        -0.286429      0.326088     -0.376949
O      11.46334      5.78799     11.40773        -0.132996     -0.363461     -0.555906
O      11.42847      9.52796      2.70430         0.802279     -0.229715     -0.130068
O      11.55890      9.65285     15.82990        -0.386629     -0.410579     -0.132593
O      11.48682      9.55661      6.99549        -0.334624     -0.101949      0.178690
O      11.42525      9.53952     11.42615         0.520307     -0.137242      0.087141
O       1.90372      3.87043      2.74893         0.271405     -0.806356     -0.238128
O       1.78774      3.77923     15.90010         0.690856      0.129338     -0.898407
O       1.76514      0.00792      2.82209         0.600078     -0.050836     -0.636413
O       1.93108     15.29954     15.75637         0.023836      0.583224     -0.332853
O      13.34763      3.81430      2.65953        -0.000801     -0.049210     -0.043295
O      13.43130      3.79154     15.78597        -0.139856     -0.032015     -0.080337
O      13.37765     15.33039      2.73832         0.091346      0.103723     -0.451250
O      13.32166     15.33140     15.93029         0.863758     -0.308272     -0.462481
O       1.88672      3.74517      7.15739         0.005131      0.504024     -0.464636
O       1.75537     15.33506      7.06065         0.408552      0.158189     -0.233711
O      13.31888      3.78149      7.09394         0.104206      0.062003     -0.197807
O      13.39637     15.28454      6.99623        -0.136975      0.771583      0.093947
O       1.74400      3.80631     11.39957         0.201623      0.475192      0.114545
O       1.91134      0.02065     11.47910        -0.514766     -0.523345     -0.053646
O      13.45834      3.95150     11.39498        -0.414294     -1.162956     -0.426880
O      13.23746     15.33807     11.33993         0.303714     -0.433994     -0.193140
O       1.71859      7.75890      2.77361         0.279703     -1.663086     -0.105053
O       1.92547      7.67940     15.74968        -0.250282     -1.036631      0.266459
O      13.43696      7.51928      2.73648        -0.051407      1.413493     -0.263660
O      13.41163      7.63296     15.88326        -0.094895      0.157049     -0.604324
O       1.83652      7.60666      7.01157         0.233313      0.355765      0.092491
O      13.42639      7.65977      7.00215         0.030009     -0.376220     -0.220800
O       1.89789      7.68456     11.51935        -0.059627     -0.386278     -0.401934
O      13.38127      7.62422     11.46199         0.083664      0.390611     -0.028342
O       2.02183     11.47712      2.75291        -0.326338      0.237407      0.488960
O       1.82268     11.54246     15.75243         0.185197     -0.741074      0.210680
O      13.42576     11.50206      2.74779        -0.652525     -0.780602     -0.334224
O      13.49766     11.50158     15.96621         0.065074     -0.023260     -0.942436
O       1.83259     11.47726      7.11789         0.576121      0.115854     -0.328359
O      13.36741     11.48663      7.04123         0.247218      0.098422     -0.127898
O       1.95311     11.54145     11.37042        -0.540720     -1.147680      0.428311
O      13.28498     11.44005     11.29193         0.407549      0.318971      0.106292
O       5.65232      3.82170      2.64383         0.128464      0.595485      0.256856
O       5.71980      3.78700     15.88022         0.013441      0.723908     -0.218492
O       5.69186     15.30786      2.53809         0.160894      0.183878      0.559117
O       5.64417      0.01338     15.64754         0.165591     -0.561196      0.249812
O       5.77828      3.78331      7.17021        -0.269160      0.271852     -0.449991
O       5.68459      0.01402      7.05058         0.383361     -1.050003     -0.195859
O       5.80530      3.79036     11.29872        -0.233218     -0.410812      0.450178
O       5.78873     15.26483     11.45692        -0.542419      1.163145      0.373078
O       5.96579      7.75806      2.81024        -0.967664     -0.529200     -0.094441
O       5.72180      7.64080     15.82440         0.354210      0.172059     -0.961848
O       5.62618      7.66374      7.03275         0.185401     -0.443596      0.180760
O       5.78033      7.58846     11.33041        -0.525326      0.794483      0.500387
O       5.64504     11.50164      2.71626        -0.363838     -0.431096     -0.337175
O       5.78458     11.48597     15.83236        -0.451990     -0.130363     -0.346213
O       5.61995     11.50344      7.05791         0.221967     -0.036045     -0.136239
O       5.73073     11.50151     11.45663        -0.130739      0.007815     -0.335203
O       9.58854      3.90822      2.72085        -0.285175     -1.291469      0.047060
O       9.53483      3.69377     15.81636         0.042738      0.751438     -0.322224
O       9.47506     15.31234      2.64322        -0.143198      0.315205      0.027141
O       9.55200     15.27354     15.91000        -0.020291      0.838502     -0.812514
O       9.56585      3.78615      6.93636        -0.493887      0.972284      0.195055
O       9.47964     15.32386      7.09774         0.077868     -0.022559     -0.069868
O       9.51404      3.81342     11.39453        -0.000209     -0.413672     -0.387117
O       9.71999     15.26855     11.30621        -0.380842      0.357202      0.141651
O       9.41121      7.64140      2.64296         0.195757      0.897767      0.230679
O       9.60616      7.68635     15.62731        -0.178662     -0.910253      0.490375
O       9.58981      7.65218      7.11656        -0.432107     -0.285679     -0.437929
O       9.54382      7.63448     11.45280        -0.724793     -0.170422     -0.282924
O       9.59405     11.51212      2.74039        -0.187245      0.128964     -0.064858
O       9.61749     11.42665     15.85118        -0.272968      0.998642     -0.236388
O       9.62879     11.51205      6.95122        -0.782987     -1.235838      0.416354
O       9.55335     11.42608     11.46655         0.014464      1.499090      0.068771
