  # total energy = -7880.95456610 
CRSYTAL
PRIMVEC
    15.6000000000000000    0.0000000000000000    0.0000000000000000
     0.0000000000000000   15.6000000000000000    0.0000000000000000
     0.0000000000000000    0.0000000000000000    17.640000000000000
PRESSURE
-3.72426 -3.81953 -5.29095 -0.082926 0.462931 -0.02278
PRIMCOORD
320 1
Pb       3.91163      3.85648      4.35461        -0.273314     -0.147134      0.343106
Pb       3.98945      3.98679     17.55827        -0.270858     -0.976356      0.663003
Pb       3.74973     15.44992      4.33404         0.320558      0.471302      0.370369
Pb       3.80427     15.58509      0.03414         0.426322      0.145465     -0.008743
Pb      15.52898      3.83825      4.32915         0.035700      0.427156      0.449945
Pb       0.05244      3.94654     17.56174        -0.376444     -0.397738      0.660058
Pb      15.58804     15.55065      4.33405        -0.003047     -0.121207      0.375581
Pb      15.42494     15.57816     17.61523         0.738309     -0.056091      0.441794
Pb       3.83650      4.00238      8.75057        -0.035670     -0.510222      0.595650
Pb       3.88939     15.57432      8.74127        -0.175493      0.458926      1.046119
Pb      15.55965      3.98023      8.80963         0.286907     -0.842427      0.891987
Pb      15.49727      0.01835      8.63916         0.759072      0.212471      0.853933
Pb       3.95083      3.80025     13.24611        -0.088791     -0.086623     -0.245453
Pb       3.92761      0.00837     13.13962        -0.287439     -0.009948      0.595738
Pb       0.03191      3.96912     13.13260        -0.383454     -0.802254      0.847743
Pb      15.49706     15.53884     13.19478         0.087677      0.395095      0.308618
Pb       3.96496      7.75110      4.39350        -0.405803      0.192204      0.123386
Pb       4.00767      7.71437     17.53424        -0.761983      0.785222      0.738585
Pb       0.02526      7.68470      4.26113         0.027800      0.244540      1.266270
Pb       0.08268      7.72214     17.47339        -0.401689      0.579051      0.855437
Pb       3.85368      7.76753      8.74750        -0.019772      0.498616      0.455260
Pb      15.50538      7.80506      8.76194         0.894517     -0.029904      0.941744
Pb       3.91888      7.74471     13.16411         0.207508      0.080124      0.454884
Pb       0.07586      7.72630     13.13328        -0.456779      0.637167      0.658362
Pb       3.89534     11.63811      4.30683         0.015012     -0.156615      0.603588
Pb       3.83331     11.70936     17.55138         0.319931     -0.202064      0.324169
Pb       0.02658     11.76771      4.28748        -0.086099     -0.795462      1.170792
Pb       0.01007     11.71505     17.45326        -0.128490     -0.347445      0.988666
Pb       3.82606     11.79184      8.85834         0.153249     -0.394142      0.250549
Pb      15.55282     11.74820      8.72401         0.212468      0.044761      0.167748
Pb       3.86301     11.74609     13.14309         0.383118     -0.066340      0.494371
Pb      15.47011     11.81181     13.15053         0.703431     -0.691709      0.808159
Pb       7.72614      3.70204      4.34950         0.432113      0.747379      0.623636
Pb       7.78824      3.94371     17.63570         0.300919     -0.563741     -0.384268
Pb       7.62224     15.50936      4.39300         0.900801      0.076212      0.706322
Pb       7.69805      0.02878     17.53732         0.236438     -0.318103      0.197435
Pb       7.61718      3.93626      8.81420         0.443141     -0.127903      0.297177
Pb       7.73703      0.05135      8.78676        -0.128362     -0.401490      0.414954
Pb       7.81749      3.91329     13.27573         0.067415     -0.358389     -0.094386
Pb       7.81642      0.09782     13.08402        -0.107386     -0.171828      1.345110
Pb       7.82992      7.66513      4.34816        -0.254059      0.137974      0.099599
Pb       7.77190      7.74767     17.55345         0.125895      0.341289      0.468853
Pb       7.71012      7.81561      8.77832         0.459712      0.422289      0.407194
Pb       7.81347      7.77937     13.18133         0.145602     -0.022624      0.256222
Pb       7.75604     11.54716      4.31127        -0.060266      0.343385      0.508599
Pb       7.79239     11.64089     17.42878        -0.300761      0.403571      1.095103
Pb       7.77741     11.74921      8.63494         0.388008     -0.246125      1.588355
Pb       7.73571     11.79251     13.07028        -0.085215     -0.387715      1.139690
Pb      11.76285      3.79516      4.26581         0.089756      0.192764      0.705573
Pb      11.64729      3.80971     17.63806        -0.099525      0.259094     -0.095494
Pb      11.64674     15.50307      4.31512         0.239290      0.160892      0.801373
Pb      11.64734     15.53383     17.63636        -0.080307      0.297394     -0.233148
Pb      11.67580      3.91131      8.68770         0.003088     -0.284197      1.257277
Pb      11.69864      0.00543      8.72643        -0.032919      0.339914      0.452899
Pb      11.74193      3.90464     13.10503        -0.122856     -0.499008      1.539980
Pb      11.62753      0.03220     13.11124         0.433399      0.085274      1.023154
Pb      11.64888      7.76223      4.33519         0.493620      0.121057      0.326800
Pb      11.64621      7.73514     17.57769         0.476303     -0.015222      0.040465
Pb      11.67264      7.79568      8.73407        -0.290266      0.497727      0.648399
Pb      11.66150      7.77741     13.08400         0.158476     -0.052616      0.704966
Pb      11.67667     11.47815      4.31570         0.275003      0.776804      0.352958
Pb      11.60591     11.69559     17.53927         0.653853     -0.408729      0.589177
Pb      11.65198     11.78030      8.86158        -0.124165     -0.697248      0.145376
Pb      11.63280     11.70609     13.21506         0.082840     -0.211481      0.277614
Ti       1.98112      2.04952      2.41887         0.573116     -0.833013      0.132236
Ti       1.99069      1.92451     15.64894         0.017862     -0.618477     -1.130999
Ti       2.00622     13.59726      2.34896        -0.306705      0.200029     -0.577516
Ti       1.99866     13.66692     15.61534         0.357900      0.111954     -0.992117
Ti      13.69598      1.89404      2.30735        -0.076075      0.372941     -1.184811
Ti      13.67794      1.93521     15.77852        -0.758492     -0.332208     -2.324184
Ti      13.68940     13.61970      2.39685         0.085500     -0.467237     -0.913935
Ti      13.70861     13.62550     15.69282        -0.489752      0.332587     -1.843372
Ti       1.98144      2.01549      6.74517        -0.330443     -0.969308     -0.024280
Ti       1.97773     13.67525      6.84729        -0.751254      0.181345     -0.258035
Ti      13.60823      1.95829      6.85418         0.228626      0.445340     -1.059041
Ti      13.57945     13.58135      6.86977         1.234175      0.193141     -1.781684
Ti       1.94925      1.88410     11.19352        -0.122472     -0.150900     -0.649298
Ti       1.95435     13.61542     11.25499         0.310325      0.882648     -1.626403
Ti      13.70297      1.90233     11.25352        -0.826689      0.270849     -1.271322
Ti      13.61865     13.59961     11.24570        -0.087872      0.653089     -0.466269
Ti       1.94268      5.84446      2.30562        -0.219117      0.023601     -0.891510
Ti       1.90667      5.77238     15.60828         0.412025      0.656115     -0.621600
Ti      13.62598      5.81840      2.37867        -0.115441      0.149368     -1.363761
Ti      13.61238      5.74707     15.66803        -0.878737      0.959842     -0.374925
Ti       1.91166      5.83366      6.86461        -0.496131      0.228651     -1.579767
Ti      13.61919      5.83341      6.87408         0.606970     -0.383945     -1.467563
Ti       2.01237      5.80783     11.22674        -0.315431     -0.481888     -0.404032
Ti      13.67424      5.81401     11.24817         0.026474      0.069399      0.085181
Ti       1.97427      9.69864      2.42129        -0.642197     -0.267600     -0.683641
Ti       1.95377      9.74023     15.60509         0.388472     -0.480417     -1.093371
Ti      13.69963      9.66846      2.43699         0.138316      0.042887     -0.522684
Ti      13.68530      9.71155     15.61276        -0.089780     -0.854939     -0.900038
Ti       1.95729      9.74544      6.87391         0.528834      0.520849     -2.135845
Ti      13.74032      9.69053      6.78352        -0.678513      0.682134     -1.940126
Ti       1.95348      9.72060     11.26392        -0.047483      0.308603     -0.635346
Ti      13.67685      9.73314     11.24419        -0.084040     -0.262250     -0.654159
Ti       5.91365      1.85943      2.41081        -1.357540      0.279785     -1.176421
Ti       5.80516      1.91360     15.61156         0.592089     -0.301932     -1.599544
Ti       5.91347     13.61217      2.34001        -0.887650     -0.163386     -1.220614
Ti       5.79971     13.66397     15.63983         0.541861     -0.135641     -0.773310
Ti       5.81660      1.96654      6.81645        -0.559998     -0.589864     -1.204077
Ti       5.86032     13.60034      6.86466        -0.142523      0.139442     -1.180553
Ti       5.82930      1.98013     11.19319         0.333283     -0.280070     -0.262913
Ti       5.82319     13.74878     11.21970         0.655720     -1.314683     -0.733049
Ti       5.76801      5.75141      2.41071         0.650041      0.709761     -0.864800
Ti       5.80182      5.83669     15.66094         1.226985     -0.367888     -1.752856
Ti       5.84013      5.81118      6.73067        -0.596770      0.443700     -0.726993
Ti       5.87714      5.80106     11.13852         0.241704      0.069405      0.580499
Ti       5.84309      9.68822      2.38550        -0.732926     -0.066391     -0.847150
Ti       5.80191      9.78983     15.62245        -0.177133     -0.433348     -0.757804
Ti       5.81174      9.67837      6.81754        -0.023742      0.768108     -0.504403
Ti       5.80677      9.72852     11.23055         0.782059      0.801707     -0.209643
Ti       9.81173      1.93744      2.42051        -0.436589     -0.572244     -0.874250
Ti       9.70919      1.85680     15.65765         0.302874      0.690934     -0.481504
Ti       9.73608     13.66165      2.41590        -0.012747     -0.020699     -0.278180
Ti       9.74841     13.62251     15.63641        -0.097116      0.540072     -0.518502
Ti       9.65749      2.02421      6.83529         0.598009     -0.824125     -1.629255
Ti       9.76628     13.72615      6.83693        -0.285247     -0.478180     -0.912608
Ti       9.79927      1.89757     11.15386        -0.265117      0.776878      0.949486
Ti       9.74821     13.63522     11.24884         0.038045     -0.448570     -0.652362
Ti       9.74558      5.78739      2.41392        -0.130866     -0.290889     -0.523233
Ti       9.67931      5.81206     15.63590         1.313047     -0.675002     -1.563053
Ti       9.68376      5.83363      6.84051         0.355566      0.093763     -0.178701
Ti       9.74722      5.72575     11.18430        -0.140376      0.342479      0.147070
Ti       9.65353      9.69922      2.41474         0.819257     -0.101953     -1.400915
Ti       9.73826      9.74973     15.64544         0.354840     -0.928175     -1.747481
Ti       9.76570      9.75391      6.86156        -0.309234      0.194641     -0.921135
Ti       9.74397      9.76415     11.33685        -0.463381     -0.474865     -1.720187
O       2.13885      1.89424      0.67463        -0.467465      0.088768      0.495967
O       2.04112      1.95175     13.87207        -0.083546      0.049771      1.234684
O       2.00237     13.67277      0.56569         0.017916     -0.286791      1.046410
O       2.12306     13.59961     13.82853        -0.444630      0.148502      0.883124
O      13.67067      1.88170      0.47674         0.200343     -0.155049      1.514780
O      13.66169      1.77172     13.94416        -0.039408      0.201392      1.686344
O      13.91184     13.63466      0.60230        -0.773841     -0.120157      0.945735
O      13.78190     13.68804     13.82519        -0.234579     -0.157295      1.601849
O       1.98343      1.97426      4.92280        -0.187376      0.065854      1.570809
O       1.89258     13.75656      5.04679         0.417836     -0.233590      1.159042
O      13.60439      2.21290      5.06663         0.187536     -0.634240      1.382436
O      13.62573     13.74068      5.11397        -0.185304     -0.317781      0.298692
O       1.92039      1.87419      9.42881         0.139265      0.329488      1.152352
O       2.04361     13.65144      9.44835        -0.306106     -0.221786      1.002745
O      13.72207      1.93993      9.45135        -0.268520     -0.190766      0.718326
O      13.56796     13.57773      9.46564         0.205159     -0.071574      0.772718
O       1.93829      5.79155      0.48898         0.038260      0.161476      1.395744
O       2.05092      5.77132     13.82045        -0.381805     -0.014412      1.187283
O      13.52816      5.90185      0.60650         0.443189     -0.112773      0.876721
O      13.63112      5.72252     13.91400         0.178302      0.226119      0.299202
O       1.88431      5.72471      5.08243         0.100844      0.112230      1.157366
O      13.73514      5.76753      5.08588        -0.395489     -0.003962      1.350490
O       1.96036      5.78524      9.43746         0.227621      0.206163      1.163880
O      13.73460      5.87100      9.50491        -0.178671     -0.122841     -0.004951
O       1.93436      9.60643      0.65856         0.110134      0.482308      0.690024
O       1.97896      9.77471     13.82903         0.207134     -0.183720      0.740326
O      13.67373      9.64679      0.66376         0.130389      0.227502      1.017132
O      13.71956      9.74243     13.83994        -0.316894     -0.039633      1.171662
O       2.09582      9.83499      5.07761        -0.107647     -0.300862      1.482607
O      13.68741      9.54257      4.94584        -0.357832      0.604679      2.461970
O       2.02344      9.67885      9.48663        -0.378450      0.279073      0.791013
O      13.66491      9.79607      9.43728         0.239093     -0.277681      1.272355
O       5.72909      1.85479      0.58866         0.653475      0.095369      1.973031
O       5.85654      1.97572     13.75824        -0.296985      0.009880      1.680364
O       5.86038     13.76870      0.52919         0.141608     -0.542232      1.766907
O       5.72487     13.51918     13.87707         0.249229      0.411606      0.457792
O       5.91810      2.05499      4.97900        -0.005788     -0.455364      1.843107
O       5.80495     13.61353      5.04824         0.154508      0.040919      1.719855
O       5.80386      1.83560      9.41320         0.232322      0.625840      0.780097
O       5.99312     13.62217      9.44629        -0.434125      0.340422      0.679665
O       5.86268      5.77389      0.56686        -0.160581     -0.095085      1.225676
O       5.91518      5.76712     13.84164        -0.331822      0.025638      2.090044
O       5.76257      5.82318      4.91054         0.139541      0.051429      1.701440
O       5.88905      5.94260      9.34852        -0.216369     -0.560759      1.088546
O       5.94828      9.72509      0.62023        -0.466472     -0.143905      0.602746
O       5.73749      9.63054     13.85859         0.256060      0.232085      0.911270
O       5.68836      9.65378      5.01704         0.474336      0.229930      1.024804
O       5.93026      9.74319      9.46033        -0.201372     -0.467441      1.199195
O       9.75933      1.86844      0.61773        -0.053621      0.059485      1.722521
O       9.66618      1.85702     13.87928         0.172693     -0.027291      0.956089
O       9.70976     13.67265      0.64221         0.344431     -0.123397      1.311446
O       9.80587     13.62724     13.87586         0.097359     -0.067505      0.580625
O       9.66133      1.98955      4.98639         0.121024      0.236602      2.275397
O       9.76430     13.78081      5.06300         0.103358     -0.307220      1.064653
O       9.83448      1.92113      9.42754        -0.254129      0.000935     -0.276728
O       9.88789     13.57779      9.47570        -0.226042      0.375606      0.617031
O       9.80543      5.70873      0.63922        -0.404521      0.355351      1.128307
O       9.62339      5.72678     13.80298         0.242334      0.217674      1.761878
O       9.75479      5.81012      5.08643        -0.271703      0.372020      0.698159
O       9.70857      5.80124      9.40814         0.047534     -0.058458      0.859640
O       9.78465      9.60194      0.62545        -0.421132      0.493395      1.216158
O       9.73127      9.70847     13.82872         0.203591      0.108471      1.729717
O       9.55071      9.67291      5.04437         0.680494      0.247025      1.223910
O       9.73034      9.64519      9.53063         0.183901      0.275084      1.093574
O       3.93004      1.91642      2.96585        -0.241577     -0.248753     -0.766516
O       3.95050      1.99810     16.04738        -0.789885     -0.189334     -0.135713
O       3.96627     13.59220      2.77766        -0.792062      0.351736     -0.273955
O       3.97053     13.66420     16.07576        -1.119483     -0.710372      0.153653
O      15.59950      2.03605      2.85862         0.218540     -0.891773     -0.721612
O       0.00263      1.91875     16.00937         0.494532     -0.304246      0.343219
O      15.55086     13.54884      2.85790         0.605341      0.678095     -0.376347
O       0.07131     13.73609     16.08110        -0.242078     -0.415106     -0.508815
O       3.90530      1.92333      7.18875         0.031664      0.390544     -0.270286
O       3.94457     13.64479      7.43377         0.011681     -0.250985     -1.377411
O       0.06412      1.88468      7.19771        -0.506058      0.506139     -0.541530
O      15.58821     13.65542      7.24161         0.217914      0.156911      0.030831
O       3.90878      1.95811     11.63507        -0.094543      0.081752     -0.251694
O       3.96549     13.74237     11.59895        -0.269909     -0.501283     -0.126657
O      15.46701      1.90931     11.70885         1.927757     -0.048319     -0.047655
O       0.07505     13.62711     11.62112        -1.156579      0.029995     -0.143805
O       3.84149      5.77043      2.75841         0.396092      0.157159     -0.278395
O       3.94881      5.87011     16.07797        -0.511485     -0.667126     -0.644155
O      15.50815      5.86524      2.78134         1.343469     -0.775651     -0.478274
O       0.02399      5.81627     16.07845         0.045028     -0.312303     -0.643945
O       3.78850      5.94787      7.29621         1.111830     -0.671777     -0.519042
O       0.00701      5.77754      7.39905        -0.199450      0.580762     -0.734109
O       3.91918      5.75672     11.64474        -0.005958      0.005982     -0.582082
O       0.03456      5.85691     11.69480         0.117877     -0.237977     -0.412119
O       3.82467      9.75377      2.86645         0.865450     -0.287676     -0.392858
O       3.91115      9.74228     16.09382        -0.009869     -0.114253     -0.093862
O       0.02080      9.67339      2.94705         0.097576      0.458861     -0.757046
O       0.08721      9.66042     15.97569        -0.956580      0.431398      0.144159
O       3.99564      9.77878      7.35764        -0.861528     -0.273693     -0.326049
O       0.04931      9.83452      7.12631        -0.623710     -0.381084      0.432948
O       3.91681      9.71270     11.66412        -0.177992     -0.271471     -0.321567
O      15.59890      9.76526     11.78320         0.475178     -0.209849     -0.947661
O       7.82614      1.96074      2.87141        -0.471652     -0.161169     -0.910567
O       7.75892      1.92429     16.05812         0.182243     -0.162702      0.047133
O       7.72177     13.65659      2.82231         1.025137     -0.204458     -0.013492
O       7.88076     13.58584     16.07100        -0.788383      0.046887     -0.413765
O       7.70225      1.92153      7.40091         0.652053      0.887000     -0.998426
O       7.83691     13.68955      7.21622        -0.178546     -0.054133     -0.249820
O       7.78011      1.88151     11.63550         0.321326      0.619733     -0.773644
O       7.87933     13.62582     11.67785        -0.781364      0.156415     -0.456660
O       7.80367      5.77299      2.82533        -0.002051      0.257231     -0.337324
O       7.82923      5.85596     16.07796        -0.992947     -0.681745      0.059734
O       7.69986      5.74189      7.26208         0.423819      0.430458     -0.746179
O       7.85575      5.66079     11.64374        -0.385135      0.576539     -0.731340
O       7.68300      9.60587      2.82654         1.135635      0.487526      0.084711
O       7.82308      9.70675     16.11058        -0.112290      0.042428     -0.641147
O       7.83673      9.82250      7.31714        -0.289410     -0.757532     -0.703767
O       7.81731      9.84738     11.75329        -0.745630     -1.079786     -0.462639
O      11.81599      1.93183      2.75681        -1.025493     -0.274084     -0.077668
O      11.67033      1.95147     16.09655         0.085251     -0.600776     -0.021964
O      11.67886     13.68447      2.90119        -0.210692     -0.459709     -0.883180
O      11.81391     13.59003     16.15806        -0.910086      0.098711     -0.382528
O      11.65574      1.99369      7.26911         0.184113      0.069387     -0.492433
O      11.76503     13.58847      7.38724        -1.092104      0.750603     -0.694504
O      11.72590      1.93082     11.68971        -0.338816     -0.611272     -0.536555
O      11.66090     13.61208     11.71887         0.782046     -0.015822     -0.380971
O      11.67179      5.91401      2.83628        -0.130709     -0.326704     -0.033320
O      11.68996      5.76279     16.12912        -0.264867      0.247996     -0.549085
O      11.68744      5.82014      7.25083         0.093361      0.414573     -0.341073
O      11.76461      5.74805     11.72851        -0.611327      0.967813     -0.994679
O      11.69376      9.68850      2.85862        -0.292814     -0.011800     -0.215927
O      11.69149      9.76058     16.10411        -0.033781     -0.119616     -0.473240
O      11.69968      9.68744      7.25364         0.224634     -0.146175     -0.475485
O      11.68931      9.78748     11.71809         0.610746     -0.427205     -0.262448
O       2.00629      3.91177      2.72771        -0.434059     -0.058095     -0.060194
O       1.87967      3.81740     16.13858         0.782138      0.808757     -0.748634
O       1.84631     15.45498      2.87921         0.566681      0.635939     -0.529096
O       2.12813     15.52037     15.99182        -0.576620      1.013269     -0.020805
O      13.67075      3.82810      2.67899        -0.302109      0.571597      0.236099
O      13.63617      3.89616     16.16901         0.389712     -0.588678     -0.343321
O      13.68471     15.54981      2.75215         0.191305      0.492893     -0.074700
O      13.57482     15.52742     16.20506         0.485705      0.300300     -0.459923
O       1.97507      3.89063      7.39639        -0.062056     -0.295731     -1.106431
O       2.03598      0.02185      7.34483        -0.422135     -0.173348     -1.159009
O      13.68576      3.92693      7.43007        -0.277102     -0.198478     -0.993584
O      13.59591      0.03152      7.15941        -0.093496      0.327228      0.212377
O       1.84334      3.82791     11.72655         0.768247      0.537017     -0.896052
O       2.01021      0.00673     11.62175        -0.386866      0.149404      0.141563
O      13.61100      3.86855     11.74309         0.781925      0.136073     -0.830823
O      13.69365     15.50728     11.61468        -0.405036     -0.015186     -0.080381
O       1.94890      7.71041      2.80691         0.181745      0.052429     -0.231946
O       1.97461      7.74011     16.02542         0.272973     -0.341942     -0.446359
O      13.72510      7.73278      2.91872        -0.904717      0.275218     -0.675328
O      13.65883      7.77813     16.04281        -0.083613      0.176366     -0.236731
O       1.87553      7.84538      7.17690         0.276761     -0.376916      0.297493
O      13.78389      7.77665      7.35064        -0.992895      0.044625     -0.987664
O       1.99932      7.78467     11.66416        -0.152961     -0.348203     -0.265279
O      13.72707      7.78167     11.63294        -0.440134     -0.012426     -0.056320
O       1.93687     11.69059      2.85365         0.059306      0.227027     -0.615399
O       1.94052     11.67026     16.10863         0.374870      0.248229     -0.482166
O      13.65445     11.70036      2.90850        -0.430194     -0.403039     -0.470752
O      13.66968     11.71396     16.00730         0.468203     -0.553783      0.086019
O       1.92675     11.77030      7.24568         0.516011     -0.294430      0.176126
O      13.70335     11.65494      7.15364        -0.352803     -0.218900      0.063957
O       1.98432     11.76967     11.61664         0.224965     -1.364008     -0.148811
O      13.67507     11.63408     11.70404        -0.297020      0.935309     -0.434466
O       5.78525      3.88985      2.91230         0.386248     -0.364786     -0.987365
O       5.87424      3.78985     16.07687         0.045268      1.660074     -0.163842
O       5.89191     15.58874      2.86993        -0.405508     -0.095611     -0.655897
O       5.83653     15.55879     15.96282         0.196951      0.508131      0.047923
O       5.73726      3.92631      7.20782         0.174964     -0.105699     -0.080361
O       5.84219      0.00189      7.29612         0.204742     -0.138318     -0.782938
O       5.88884      3.86200     11.62958        -0.250936      0.319198     -0.607332
O       5.90289     15.56654     11.71079        -0.239989      0.526373     -0.716752
O       5.74642      7.73335      2.81808         0.175395     -0.220793     -0.257609
O       5.85877      7.78753     16.10020         0.132616     -0.395292     -0.475332
O       5.81919      7.75071      7.15612         0.306255      0.040057     -0.066508
O       5.88755      7.63417     11.72410         0.015248      0.863964     -0.778236
O       5.84281     11.62717      2.84257         0.173827      0.344267     -0.516678
O       5.81301     11.68072     16.03945         0.317029     -0.289593      0.039229
O       5.88788     11.64759      7.34054        -0.368982      0.819167     -1.022893
O       5.81221     11.66686     11.69420        -0.021270      0.009948     -0.600430
O       9.80455      3.84304      2.87835        -0.128829      0.292388     -0.689299
O       9.76817      3.79847     16.16120        -0.710096      0.610223     -0.419211
O       9.70912      0.02064      2.96863         0.062237     -0.285231     -0.944324
O       9.71572     15.50318     16.08754         0.512005      0.599259     -0.065417
O       9.73694      3.90781      7.30874        -0.535599     -0.061769     -0.456741
O       9.71339      0.08141      7.22104         0.422651     -0.428286      0.117676
O       9.85612      3.81905     11.68877        -0.614423      0.241432     -0.834586
O       9.67016      0.00500     11.68375         0.912389     -0.301377     -0.785382
O       9.71809      7.85603      2.85626        -0.154177     -1.241700     -0.089652
O       9.69769      7.69331     16.00456         0.371445      0.841891      0.019606
O       9.69416      7.80595      7.36104        -0.000442     -0.611361     -0.802442
O       9.73040      7.75986     11.73117         0.070783     -0.462117     -0.524729
O       9.69829     11.68565      2.84912        -0.128679     -0.189220     -0.229964
O       9.77606     11.67687     16.06375         0.041910     -0.450926     -0.168816
O       9.85091     11.76299      7.24269        -0.339812     -0.563003     -0.382294
O       9.75824     11.66555     11.70845         0.243175      0.680172     -0.202152
