  # total energy = -7879.44306290 
CRSYTAL
PRIMVEC
    15.6000000000000000    0.0000000000000000    0.0000000000000000
     0.0000000000000000   15.6000000000000000    0.0000000000000000
     0.0000000000000000    0.0000000000000000    17.640000000000000
PRESSURE
-4.54663 -4.69943 -4.87033 -0.139723 0.186122 -0.010199
PRIMCOORD
320 1
Pb       3.83266      3.92400      4.28351         0.469113     -0.089051      0.491621
Pb       3.79705      3.76250     17.55575         0.344942      0.072018     -0.277018
Pb       4.08571      0.09130      4.34616        -0.389100      0.169520      0.359840
Pb       3.97437     15.48801     17.46835        -0.214469      0.100318      0.595355
Pb       0.00619      3.88563      4.32027         0.009562     -0.225340      0.394513
Pb      15.49554      3.86935     17.60699        -0.018057     -0.307480     -0.146111
Pb      15.57958     15.55711      4.35371        -0.262448      0.616826      0.190210
Pb       0.20121     15.49829     17.49004        -0.987021      0.018999      1.032991
Pb       3.96003      3.79744      8.70819         0.042477     -0.027399     -0.302110
Pb       3.85675     15.54890      8.74977         0.639649      0.219437      0.084515
Pb      15.57708      3.81781      8.67577         0.043734      0.031517      0.293244
Pb       0.04188     15.45396      8.95244         0.053472      0.479741     -0.570087
Pb       3.74305      4.07451     13.12445         0.167251     -0.773214      0.599900
Pb       3.77954     15.55776     13.14045         0.477553      0.249103      0.881806
Pb      15.47646      3.83632     13.15655         0.084939      0.004735     -0.005681
Pb       0.00987     15.59658     13.10386         0.068930     -0.001010      0.511777
Pb       3.80358      7.74019      4.25961         0.601847      0.055541      0.567069
Pb       3.71800      7.75152     17.58221         0.592873      0.120195      0.409733
Pb      15.46454      7.78692      4.43200         0.644794      0.143111      0.138400
Pb      15.48567      7.74755      0.03408        -0.161565     -0.054749     -0.291627
Pb       3.90899      7.76593      8.71851         0.214643     -0.180082      0.266588
Pb       0.03199      7.69914      8.74285        -0.502031      0.120946     -0.380684
Pb       3.87533      7.77253     13.18208        -0.307170      0.261109      0.147356
Pb      15.37527      7.83446     13.18715         1.241990      0.034125      0.236714
Pb       3.89162     11.70650      4.30611        -0.473285      0.076932      0.254269
Pb       3.92679     11.63483     17.58872        -0.199177      0.347377      0.203727
Pb      15.53692     11.63571      4.43720         0.444522     -0.051477     -0.139578
Pb      15.55418     11.61146      0.12658         0.026535      0.397121     -0.623371
Pb       3.88335     11.65632      8.67162        -0.178678      0.078420      0.287847
Pb      15.57469     11.65684      8.80532         0.194455     -0.193998     -0.408112
Pb       3.90474     11.71223     13.19837        -0.184379     -0.312733      0.421111
Pb       0.05943     11.61849     13.16606         0.136957     -0.255562      0.262829
Pb       7.81137      4.07513      4.30054        -0.569123     -0.719569      0.320071
Pb       7.74729      3.80194     17.48218         0.437498      0.182107      0.302873
Pb       7.93772      0.03625      4.28020        -0.161816      0.565624      0.511362
Pb       7.90358     15.47678     17.59915        -0.409238      0.415521     -0.051203
Pb       7.92653      3.88131      8.71897        -0.235446     -0.609534      0.005982
Pb       7.73556     15.49021      8.69312        -0.146823      0.157555      0.947038
Pb       7.65843      3.90592     13.02664         0.336055     -0.419405      0.660604
Pb       7.68516     15.44507     13.21633         0.114371      0.033420      0.116676
Pb       7.68300      7.91839      4.31307        -0.209170     -0.066930      0.181256
Pb       7.82226      7.81425     17.59115        -0.565883     -0.115371      0.333641
Pb       7.82769      7.77132      8.76099        -0.357955      0.318378      0.438294
Pb       7.71591      7.67885     13.11079        -0.076071      0.857034      0.518219
Pb       7.75399     11.82331      4.34465         0.420489     -0.566918     -0.040334
Pb       7.73793     11.72077      0.05770         0.061215     -0.077882     -0.532847
Pb       7.69082     11.66400      8.89258         0.285778      0.070573      0.072982
Pb       7.85406     11.54847     13.21430        -0.428400      0.037745      0.387765
Pb      11.54602      4.02834      4.36748        -0.057126     -0.861348     -0.013788
Pb      11.72210      4.00493     17.49369         0.058422     -0.734180      0.662422
Pb      11.75082      0.04802      4.38470         0.122719      0.814717      0.196081
Pb      11.68943      0.00505     17.54100         0.504689      0.177070      0.314921
Pb      11.68973      3.89397      8.77976        -0.079077      0.190989      0.230388
Pb      11.64834     15.55227      8.83376         0.241674     -0.105975      0.331518
Pb      11.54416      3.91831     13.20762         0.332930     -0.340936     -0.115247
Pb      11.72390     15.50595     13.17338         0.044832      0.164633      0.190480
Pb      11.62597      7.81094      4.34501        -0.177509      0.349188      0.759319
Pb      11.63065      7.88395     17.61169         0.409342     -0.175415     -0.199873
Pb      11.75680      7.73849      8.77214        -0.015149     -0.107406     -0.001995
Pb      11.67262      7.82533     13.20248        -0.558183      0.192102     -0.384037
Pb      11.74659     11.94729      4.45765         0.082510     -0.760263     -0.116364
Pb      11.71044     11.78510      0.01714        -0.049452     -0.252125     -0.503673
Pb      11.66006     11.67088      8.70072        -0.036999     -0.116330      0.247045
Pb      11.79171     11.71933     13.09263        -0.264103     -0.556905      0.662426
Ti       1.96948      1.87509      2.36850        -0.450867      0.804663     -1.042321
Ti       1.93342      1.95326     15.62018         0.119063     -0.220342     -1.555174
Ti       1.99116     13.67954      2.53608         0.341175     -0.271902     -1.395361
Ti       1.91732     13.57296     15.50372         0.341009      0.237042     -1.606813
Ti      13.66624      2.03623      2.38375        -0.477443     -0.921564     -1.674739
Ti      13.68500      1.85684     15.53354        -0.832808     -0.345655     -0.420944
Ti      13.71984     13.68249      2.41004         0.352677      0.683206     -1.461345
Ti      13.66081     13.57275     15.70551         0.090232     -0.147062      0.083031
Ti       1.96711      1.81093      6.76565         0.295113      1.214524     -1.018080
Ti       1.96034     13.64093      6.67572         1.119592     -1.135093     -0.086735
Ti      13.65547      1.89054      6.98265         0.656655     -0.006079     -1.901268
Ti      13.72782     13.67476      6.80571        -0.318167     -0.494964     -0.337116
Ti       1.88961      1.97553     11.20698         1.008461     -0.535333      0.828723
Ti       2.01980     13.62801     11.22254         0.123030     -0.873307     -0.077353
Ti      13.55214      1.84714     11.21765        -0.087136      1.339273     -0.291189
Ti      13.73996     13.53742     11.15961        -1.080522     -0.230461     -0.378067
Ti       1.82951      5.82085      2.36594         0.508481      0.293277      0.282584
Ti       1.82401      5.94125     15.67337         0.466646     -1.295867     -1.127701
Ti      13.47628      5.90679      2.47267         0.803721     -1.012247     -1.332729
Ti      13.64449      5.79517     15.51427        -0.274992      0.055232     -0.408850
Ti       1.89160      5.78752      6.78387         0.569585     -0.338756     -0.935646
Ti      13.61044      5.79515      6.60900         0.082739     -0.006002      1.270509
Ti       1.82847      5.89480     11.06321        -0.381133      0.068382      1.427802
Ti      13.58217      5.77621     11.25053        -0.691939     -0.307265      0.014836
Ti       1.84479      9.75817      2.42585         0.496379     -0.041123     -0.807302
Ti       1.92637      9.81156     15.70242        -0.056641     -0.033648     -1.301141
Ti      13.58068      9.74186      2.42175         0.477930      0.492165     -0.226682
Ti      13.69014      9.71157     15.56838         0.081599      0.495401     -0.192420
Ti       1.91024      9.70608      6.80293        -0.434909      0.583166     -1.747245
Ti      13.60140      9.68966      6.75791        -0.098631      0.298909     -0.640803
Ti       1.93723      9.67496     11.08402        -0.536428      0.693788      1.557449
Ti      13.62742      9.66657     11.17980        -0.329519      0.215998      1.134615
Ti       5.90522      1.97555      2.28954         0.451356     -0.192023     -0.044987
Ti       5.95632      1.87331     15.56732        -0.635680     -0.195116      0.324407
Ti       5.93894     13.69759      2.50472        -1.049841      0.783490     -0.755331
Ti       5.83558     13.62912     15.52012        -0.115851     -0.660006     -1.523287
Ti       5.93372      1.88072      6.74417        -0.047469      0.926995     -0.057717
Ti       5.85395     13.56263      6.68655         0.161137      0.920078      0.702471
Ti       5.82248      1.77769     11.19843        -0.523101     -0.035861     -0.852450
Ti       5.85095     13.49499     11.24237         0.842703      0.003623     -0.575049
Ti       5.84864      5.90913      2.28487        -0.559627     -0.453607     -0.626833
Ti       5.83721      5.85375     15.67790        -0.186234     -0.488804     -1.003864
Ti       5.86854      5.90184      6.87151        -0.294633     -1.242751     -1.824089
Ti       5.71056      5.77763     11.19845         0.109373      0.737402     -0.569409
Ti       5.77079      9.82133      2.33395         0.217512     -0.783583     -0.665087
Ti       5.82536      9.70164     15.71363         0.070592      0.485852     -0.233479
Ti       5.86960      9.76529      6.72714        -0.495699     -1.146492      0.389423
Ti       5.68308      9.68981     11.14835         1.831231      0.017086     -1.391383
Ti       9.79872      1.91381      2.30548        -0.544946      0.415421      0.042903
Ti       9.88590      1.91474     15.53270        -0.928139     -0.003218     -0.965933
Ti       9.88012     13.66950      2.40319        -0.456050      0.844914      0.991877
Ti       9.77200     13.65449     15.51490         0.128944     -0.721673     -0.179712
Ti       9.83689      1.81242      6.88006        -0.968265      1.296043     -0.765561
Ti       9.74514     13.60135      6.76664        -0.355242      0.337257     -0.845049
Ti       9.67717      1.83224     11.29618         0.142238      1.089716     -1.186508
Ti       9.71280     13.62431     11.27676        -0.010065     -1.142113     -0.039575
Ti       9.62681      5.92325      2.37975        -0.214405     -0.357583      0.076139
Ti       9.76440      5.88415     15.60436        -0.322749     -0.314810      0.110645
Ti       9.76005      5.86687      6.74414        -0.022147     -0.616040     -0.721193
Ti       9.68152      5.91746     11.15597         1.617919     -0.744365     -0.151777
Ti       9.83950      9.81748      2.44701        -0.776727      0.134091      0.159424
Ti       9.78500      9.78556     15.71996         0.009507      0.380327     -0.801289
Ti       9.63384      9.72326      6.76644         1.081572      0.728784     -0.958587
Ti       9.64236      9.78615     11.18639         0.644363     -0.669909     -0.096407
O       1.81093      1.90096      0.52963         0.553901      0.149760      1.318547
O       1.87127      1.91449     13.80308         0.027402     -0.149021      1.244341
O       2.07601     13.66337      0.76325        -0.363994     -0.005993      0.698289
O       1.96191     13.56711     13.62450        -0.350578      0.052460      1.778103
O      13.54741      2.02158      0.58238         0.282061      0.144725      1.445806
O      13.65889      1.84674     13.74693         0.344473      0.095156      0.521451
O      13.74647     13.74667      0.60419        -0.439505     -0.524918      1.093861
O      13.62345     13.42043     13.98976         0.213414      0.372611     -0.751243
O       2.03028      1.97913      4.96690        -0.395111     -0.157685      1.251279
O       1.95764     13.44922      4.92288        -0.094969      0.619698      0.158433
O      13.77204      1.77561      5.20035        -0.272075      0.024066      1.016782
O      13.70100     13.72941      4.97641         0.159508     -0.214724      1.313691
O       1.92084      1.81637      9.49523         0.199099      0.013286     -0.730143
O       2.11282     13.59150      9.41622        -0.418863      0.006743      1.250981
O      13.57982      1.95461      9.42635         0.113584     -0.255489      0.452171
O      13.75893     13.51770      9.38494         0.010257      0.275671      0.960764
O       1.70964      5.88941      0.59120         0.302341     -0.259788      0.653632
O       1.89289      5.83259     13.87652         0.117933      0.213171      1.195007
O      13.57156      5.82746      0.64641         0.085984      0.339137      1.732558
O      13.61568      5.64677     13.71377         0.238897      0.822635      1.388624
O       1.94474      5.78195      4.98971         0.014038     -0.044422      1.157678
O      13.57422      5.85478      4.86533        -0.061349     -0.070736     -0.503474
O       1.81914      5.84149      9.33742         0.029981      0.207236     -0.099876
O      13.41534      5.83769      9.51489         0.372112      0.030004     -0.219941
O       1.88706      9.80389      0.57725        -0.205028     -0.266325      1.406908
O       1.99577      9.73653     13.94516        -0.083491     -0.024134      0.700823
O      13.65831      9.62985      0.64520        -0.110593     -0.008197      0.760503
O      13.80256      9.78487     13.76783        -0.420077     -0.409136      0.934041
O       1.77198      9.76860      4.97460         0.484025     -0.172536      1.581143
O      13.62173      9.84624      4.96356        -0.036404     -0.218589      1.300046
O       1.78277      9.84769      9.36583         0.268935     -0.517319     -0.941843
O      13.68395      9.59972      9.46733        -0.005070      0.099249     -1.098646
O       5.86122      1.73501      0.51207         0.321016      0.611414      0.868268
O       5.83902      1.76559     13.84091         0.417761      0.414606      0.184116
O       5.84833     13.86258      0.75840         0.067580     -0.547891     -0.081909
O       5.92655     13.47567     13.68263        -0.350949      0.419654      2.007836
O       5.90974      2.05825      4.98019        -0.071945     -0.607531      1.191704
O       5.90214     13.63620      4.93049         0.041413     -0.245327      0.282500
O       5.81585      1.74140      9.39980        -0.108507      0.383455      1.370484
O       6.00978     13.37647      9.43181        -0.559460      0.530534      1.159743
O       5.89098      5.88124      0.51420        -0.063322     -0.044443      0.602661
O       5.77061      5.81365     13.80501        -0.122502      0.078240      1.749675
O       5.93595      5.86282      5.08093        -0.251564      0.203714      1.128303
O       5.60154      5.93566      9.44416         0.852896     -0.536210      0.629613
O       5.80860      9.83594      0.50392        -0.206416      0.021886      1.869968
O       5.73606      9.84421     13.96839         0.298935     -0.434685      0.309446
O       5.82431      9.53889      4.95215         0.084691      0.935287      1.454912
O       5.89248      9.61531      9.32150        -0.454282      0.339141      1.608568
O       9.78549      1.79542      0.55307        -0.012987      0.494465      0.401059
O       9.87205      1.87728     13.71177        -0.173892     -0.095825      1.565914
O       9.80513     13.56271      0.68956        -0.026574      0.330445     -0.449525
O       9.81083     13.54933     13.72184        -0.116167      0.335598      1.469084
O       9.87810      1.78163      5.13688        -0.090656      0.120497     -0.074837
O       9.70771     13.86758      4.93000         0.510054     -0.990090      2.446016
O       9.61294      1.94935      9.47451         0.630587     -0.320506      1.413823
O       9.71324     13.46904      9.52262         0.058169      0.327328     -0.172441
O       9.51624      5.93308      0.64197         0.463036      0.133020     -0.202084
O       9.88328      5.98116     13.86306        -0.421670     -0.159720      0.676634
O       9.74438      5.84953      4.89550         0.160844      0.134447      2.168186
O       9.84450      5.79712      9.35822        -0.489314      0.246502      1.094327
O       9.81734      9.92479      0.68314         0.052456     -0.320343      0.655912
O       9.81238      9.61494     13.97319        -0.225927      0.468071      0.511095
O       9.75154      9.88297      4.98051        -0.367987     -0.617552      1.216479
O       9.72434      9.73407      9.43379        -0.292421     -0.031864     -0.156124
O       4.00393      1.93792      2.75543        -0.681242      0.414262     -0.299769
O       3.89348      1.84961     16.00981        -0.809934      0.688352     -0.182919
O       3.89238     13.77497      2.93731         0.084142     -0.756793     -0.030845
O       3.80678     13.72327     15.83127         0.812807     -0.441180      0.319918
O      15.59236      2.06786      2.76991         0.346273     -0.159272     -0.032323
O      15.46716      1.85179     16.01846         1.093168      0.394075     -0.098302
O       0.06473     13.66550      2.82192        -0.580867     -0.185029      0.127442
O       0.03036     13.52411     16.15543        -0.330926     -0.165329     -0.587007
O       3.86755      1.92704      7.17956         0.403757      0.198033      0.189687
O       4.00250     13.43049      7.12743        -0.271721      0.530991     -0.217403
O       0.10336      1.76083      7.35635        -0.803729      0.113840     -0.065951
O       0.19164     13.65358      7.15833        -2.116450      0.195827      0.259298
O       3.90535      1.77842     11.71261         0.133830      0.341891     -0.783674
O       3.97308     13.66004     11.68409        -0.821241     -0.329321     -0.773025
O       0.02050      1.88721     11.60103        -0.681893     -0.005989     -0.039919
O      15.54291     13.55263     11.60190         0.999612      0.374022     -0.379641
O       3.91588      5.82668      2.78835        -0.140332     -0.143397     -0.495164
O       3.78096      5.79040     16.28568        -0.140803     -0.033154     -1.132729
O       0.00367      5.97620      2.89403        -0.441141     -0.712922     -0.549627
O      15.54318      5.79802     16.13919        -0.683999      0.148833     -0.620264
O       3.89896      5.72653      7.26876        -0.177839      0.346564     -0.454855
O      15.46453      5.84756      7.15694         1.049681      0.034489     -0.035661
O       3.85332      5.95352     11.60057        -0.614096     -0.594641     -0.090833
O      15.49372      5.81417     11.50832         1.261114     -0.267394     -0.028109
O       3.85447      9.82492      2.85399         0.221106     -0.408180     -0.595233
O       3.93119      9.73173     16.08363        -0.907278     -0.142286      0.332152
O      15.48388      9.78373      2.88372         0.788998     -0.527609     -0.462691
O      15.58793      9.93644     16.01230        -0.108015     -0.731831      0.296148
O       3.84507      9.62601      7.28557         0.528570      0.676323     -0.980130
O      15.53080      9.70432      7.14627         0.151717     -0.068911      0.328441
O       3.86405      9.56448     11.52488        -0.634539      0.482179     -0.045719
O       0.07728      9.70394     11.63303        -0.884306     -0.135089     -0.165107
O       7.83750      1.91397      2.84830         0.137387      0.035171     -0.708292
O       7.94818      1.92061     15.95721        -1.187007     -0.095168     -0.124764
O       7.84291     13.63765      2.83632         0.348398      0.173643     -0.325487
O       7.70354     13.68537     16.00518         0.984243     -0.132146     -0.167452
O       7.86178      1.68145      7.23453        -0.767387      1.041036     -0.488091
O       7.80644     13.61631      7.21000         0.699627      0.114324     -0.631740
O       7.76132      1.88598     11.64341         0.083153      0.414499      0.062945
O       7.78418     13.45161     11.82182         0.453387      0.158237     -1.009943
O       7.72019      6.02401      2.86766         0.634457     -0.089678     -0.421991
O       7.75673      5.86874     15.98138         0.252657     -0.079748     -0.212231
O       7.85188      5.76164      7.19657         0.433946      0.655584      0.071767
O       7.73987      5.83724     11.68001         0.030954     -0.275836     -0.929239
O       7.69389      9.76432      2.82498         0.753446      0.492888     -0.440893
O       7.77842      9.83310     16.23474        -0.027288     -0.061185     -0.703646
O       7.73226      9.61117      7.27864         0.732698      0.036094     -0.938178
O       7.68852      9.75681     11.66283         0.774455     -0.198377     -0.288361
O      11.64108      1.93341      2.80666         0.996393      0.415221      0.126038
O      11.71751      1.92448     15.98133        -0.051466     -0.101896      0.021154
O      11.81657     13.90824      2.84223        -0.490512     -1.346706     -0.384374
O      11.63305     13.65287     16.02491         0.239421     -0.247077      0.091747
O      11.73365      1.89412      7.31786         0.369414     -0.311145      0.095908
O      11.79047     13.50498      7.12324        -1.448852      0.618143     -0.110163
O      11.68010      1.92472     11.71271        -0.037310     -0.863475     -0.754702
O      11.67798     13.55933     11.68467         0.780002      0.348006     -0.642097
O      11.57647      5.80529      2.82553         1.062773      0.665381     -0.428653
O      11.70856      5.92690     16.13399        -0.465187      0.369649     -0.721696
O      11.77402      5.73928      7.16354        -1.442017      0.084650     -0.292234
O      11.59006      5.88298     11.60724         0.053286      0.164016      0.225950
O      11.70698      9.81545      2.87788        -0.379654     -0.128613     -0.251591
O      11.78235      9.63938     16.07509        -0.931113      0.315302     -0.046027
O      11.69608      9.83227      7.15353        -0.120620     -0.384201      0.103897
O      11.66343      9.68566     11.56099         0.734478     -0.212033      0.051688
O       1.96424      3.89387      2.90349        -0.252856      0.259064     -1.058410
O       1.74392      3.83554     15.92858         0.710487     -0.220707      0.552856
O       1.96198      0.10948      2.85682        -0.130725     -0.880724     -0.130618
O       1.82952     15.47351     15.93126         0.331123      0.892374     -0.294979
O      13.60801      3.90701      2.87459        -0.043241      0.577684     -0.181230
O      13.51364      3.89765     15.94697         0.629600      0.153954     -0.001836
O      13.81883      0.04777      2.83218        -0.439634      0.207084     -0.090983
O      13.56944     15.52061     15.90798         0.227978      0.363043      0.122349
O       1.83848      3.87775      7.26581         0.254028     -0.181506     -0.341944
O       2.11675     15.53758      7.18741        -0.292871     -0.491464     -0.410916
O      13.70815      3.86296      7.11055        -0.073499     -0.562422      0.287719
O      13.65828     15.49457      7.48708         0.123670     -0.108657     -0.657640
O       1.99697      3.84211     11.54418        -0.223350      1.182845     -0.242843
O       1.97734     15.49960     11.62082        -0.669568     -0.065255     -0.356153
O      13.54822      3.82916     11.69299         0.333618      0.024933     -0.477391
O      13.64384     15.56823     11.58809         0.047394     -0.865276     -0.207872
O       2.01071      7.78485      2.86042        -0.810952      0.210517     -0.823473
O       1.79074      7.80681     16.07166         0.399186      0.088177      0.089518
O      13.61229      7.79173      2.93932        -0.495386     -0.017533     -0.692768
O      13.68334      7.75591     15.90944         0.363673      0.010220      0.046860
O       1.92727      7.70628      7.14708        -0.299416      0.509986      0.227625
O      13.56133      7.71023      7.11476         0.086119      1.080728     -0.099780
O       1.86412      7.78256     11.61811         0.095542     -0.851550     -0.686645
O      13.66016      7.74117     11.71205        -0.384944      0.375796     -0.501678
O       1.93128     11.60554      2.81776        -0.089621      0.778717      0.031681
O       2.00916     11.72812     16.00036         0.097024     -0.299312      0.269234
O      13.59862     11.69138      2.69354         0.021340      0.781121      0.286121
O      13.54826     11.59761     16.10151         0.103463      0.603393      0.297877
O       1.96150     11.66885      7.14243        -0.043166     -0.487951      0.200809
O      13.64521     11.76148      7.33846         0.848086     -0.624305     -0.848013
O       2.00573     11.57668     11.72684         0.082329      0.680023     -1.035853
O      13.72840     11.60257     11.60634        -0.423303      0.491948     -0.444715
O       6.06116      3.91214      2.64643        -0.671675      0.126349     -0.237173
O       5.84917      3.83666     16.08997        -0.252684      0.034384     -0.387159
O       5.86200     15.59832      2.90282         0.481467      0.576191     -0.218539
O       5.76639     15.53821     15.97478         0.833263      0.209767     -0.299599
O       5.95845      3.84331      7.25386        -0.236519     -0.318577      0.194815
O       5.79029     15.55640      7.24064        -0.057020     -0.775293     -0.736488
O       5.71746      3.82973     11.67424         0.329757      0.558943     -0.773296
O       6.01702     15.46135     11.60637        -0.627325      0.461115     -0.316510
O       5.77256      7.82049      2.74760        -0.011715      0.422804     -0.282628
O       5.75465      7.72164     16.04873         0.228665      0.438924     -0.211282
O       5.87696      7.75678      7.32172        -0.214359      0.087071     -0.567082
O       5.80110      7.83965     11.65343         0.300989     -1.168165      0.091144
O       5.81340     11.76288      2.79472         0.055898     -0.756239     -0.058324
O       5.77805     11.76613     16.12556         0.111834      0.082099     -0.173287
O       6.00270     11.63138      7.23276        -0.651732     -0.305629     -1.107728
O       5.77972     11.59571     11.59208        -0.282156     -0.101643     -0.046159
O       9.66127      4.01599      2.78459         0.191514     -0.611378     -0.252971
O       9.80089      3.93151     16.01659        -0.076337      0.220633     -0.531941
O       9.81240      0.06546      2.76581        -0.427802     -0.882735     -0.052635
O       9.78345     15.57063     16.10574        -0.071366     -0.248527     -0.965685
O       9.72845      3.80494      7.21290         0.207844      0.711100     -0.130877
O       9.81439     15.58552      7.37762         0.325070     -2.271491     -0.390766
O       9.84425      3.86190     11.68771        -1.359074      0.405303     -0.604716
O       9.67077     15.47826     11.65448         0.271300      0.809089     -0.260601
O       9.86399      7.88756      2.86754        -0.714722      0.252285     -0.774409
O       9.62541      7.92521     16.14878         0.735799     -1.429106     -0.013683
O       9.80483      7.76821      7.23168        -0.116427     -0.266606     -0.579949
O       9.68801      7.81250     11.66936        -0.249652     -0.545239     -0.421156
O       9.84894     11.85447      2.95328         0.023467     -1.077591     -0.334034
O       9.75362     11.76837     16.13407        -0.058505     -0.218348     -0.383888
O       9.62824     11.62955      7.17747         0.404773      0.866706     -0.277211
O       9.81220     11.58625     11.70770        -0.553173      0.460812     -0.210313
