  # total energy = -7881.13512412 
CRSYTAL
PRIMVEC
    15.6000000000000000    0.0000000000000000    0.0000000000000000
     0.0000000000000000   15.6000000000000000    0.0000000000000000
     0.0000000000000000    0.0000000000000000    17.640000000000000
PRESSURE
-5.72604 -5.57252 -2.1949 0.131884 -0.130249 -0.015104
PRIMCOORD
320 1
Pb       3.95729      3.90228      4.31618        -0.232519     -0.271904     -0.005047
Pb       3.91054      3.78701     17.58653        -0.187800      0.424580     -0.526256
Pb       3.86801     15.57763      4.42510         0.064951      0.056345     -1.152698
Pb       3.92403      0.04531     17.59342        -0.202614     -0.416667      0.139899
Pb      15.52228      3.84585      4.31356         0.424394      0.071838      0.087377
Pb       0.01221      3.77581     17.51332        -0.076561      0.259125      0.607867
Pb       0.01438      0.02587      4.35317        -0.015190     -0.293191     -0.598849
Pb       0.05400     15.57243      0.03304        -0.904834     -0.425026     -0.324638
Pb       3.87809      3.86959      8.75446        -0.181723      0.273898     -0.563211
Pb       3.88009      0.02794      8.79554        -0.033348     -0.484524     -0.337346
Pb       0.04023      3.84987      8.82715        -0.332084      0.043723     -1.174412
Pb      15.58065      0.10344      8.80848        -0.062948     -0.386436     -0.157071
Pb       3.84457      3.97575     13.15807        -0.203808     -0.188756     -0.045844
Pb       3.96053      0.09200     13.19586        -0.230355     -0.425166     -0.367814
Pb       0.00861      3.88847     13.24315         0.233702      0.017638     -0.619615
Pb      15.54004     15.56038     13.22725         0.004543     -0.265184     -0.641985
Pb       3.90888      7.77514      4.25902         0.057494     -0.020509      0.081157
Pb       3.88116      7.76547     17.57941        -0.085668      0.345030     -0.495418
Pb      15.55966      7.60188      4.38268        -0.193244      0.142880     -0.559002
Pb      15.54866      7.76434     17.58806         0.082884      0.099416     -0.321255
Pb       3.80094      7.74840      8.76220         0.390618      0.010232     -0.396452
Pb       0.05593      7.85104      8.68976        -1.134071     -0.499878     -0.266783
Pb       3.89408      7.84314     13.19329         0.110408      0.086847     -0.830916
Pb      15.55626      7.76955     13.17244        -0.288790      0.336955     -0.490688
Pb       3.90202     11.60622      4.32299         0.102060      0.165495     -0.547806
Pb       3.84821     11.64934     17.55503         0.036872     -0.089392     -0.285627
Pb       0.07365     11.71636      4.42905        -0.487870      0.068546     -0.911384
Pb       0.03560     11.61199      0.00515        -0.245639      0.481864     -0.580600
Pb       3.87124     11.74868      8.79694         0.013764      0.360526     -0.459940
Pb       0.01686     11.54886      8.73676         0.093779      0.699982      0.025942
Pb       3.92972     11.56565     13.20183        -0.223682      0.592446     -0.152612
Pb       0.05644     11.69077     13.23252        -0.402104      0.095853     -0.233309
Pb       7.75451      3.88309      4.28498         0.411057      0.098450      0.163248
Pb       7.84271      3.86432     17.63225        -0.110799     -0.009822     -0.992909
Pb       7.83036     15.58693      4.39530        -0.174809     -0.154014     -0.654637
Pb       7.77532     15.53531     17.58228         0.448691     -0.102484     -0.253059
Pb       7.85994      3.89874      8.77415        -0.193488     -0.050973     -0.557353
Pb       7.72538      0.04870      8.74682         0.070622     -0.062093     -0.656429
Pb       7.63815      3.82042     13.21004         0.299998      0.192487     -0.162206
Pb       7.78398      0.01248     13.12567         0.125835     -0.063441     -0.069511
Pb       7.71188      7.72247      4.31904         0.170846      0.036056      0.295718
Pb       7.78255      7.73250     17.51164         0.206711      0.102476     -0.252601
Pb       7.80676      7.82547      8.79418         0.300019     -0.036476     -0.322928
Pb       7.86233      7.66693     13.24287         0.067961      0.552449     -1.308490
Pb       7.70115     11.57518      4.29966         0.444581      0.178152     -0.414174
Pb       7.79106     11.63629     17.49430         0.041496      0.416240     -0.039182
Pb       7.76716     11.63948      8.66766         0.066256      0.250021      0.169706
Pb       7.74607     11.62244     13.20439        -0.170766      0.005011     -1.205446
Pb      11.73109      3.82300      4.26729        -0.458202      0.574536     -0.107074
Pb      11.57360      3.84815     17.55192         0.280937      0.144556      0.431216
Pb      11.77535      0.04779      4.31220        -0.338056     -0.647089      0.152030
Pb      11.80006      0.04350     17.58346         0.032123     -0.565330     -0.557220
Pb      11.70410      3.88549      8.78243         0.338946     -0.153852     -1.086597
Pb      11.55700      0.01905      8.79445         0.277329     -0.324205     -0.366691
Pb      11.65241      3.82097     13.19064        -0.138016      0.412343     -0.567522
Pb      11.69107      0.08593     13.24276        -0.223546     -0.834978     -0.694506
Pb      11.61970      7.82794      4.41601         0.325659     -0.002542     -0.460907
Pb      11.77738      7.83941      0.00443        -0.327519      0.047680     -0.500535
Pb      11.75888      7.79971      8.78791         0.113548      0.103134     -0.659187
Pb      11.66629      7.85418     13.16487        -0.141598     -0.090275     -0.783076
Pb      11.68912     11.62878      4.51231        -0.165333     -0.056482     -1.015424
Pb      11.57376     11.74887      0.09795         0.275991     -0.035273     -1.054517
Pb      11.56462     11.76337      8.90420        -0.213232      0.017811     -0.413828
Pb      11.73082     11.67961     13.35448         0.211434      0.480006     -1.057034
Ti       1.89739      1.92875      2.29961         0.144676     -0.438705      0.454186
Ti       1.86780      1.87902     15.62072         0.255444      0.577186      1.562072
Ti       1.92091     13.53625      2.33734        -0.241758      1.492437      0.639637
Ti       1.85991     13.64349     15.68318        -0.494249     -0.193243     -0.039747
Ti      13.53750      1.84679      2.39919         1.552394      1.238725     -0.760353
Ti      13.61595      2.03786     15.53035        -0.108179     -2.266572      2.091424
Ti      13.55223     13.54094      2.36527         0.712212      0.257962     -0.684621
Ti      13.51793     13.55315     15.62416         0.465838      0.888154     -0.209701
Ti       1.93233      1.88087      6.70550        -0.234052      0.947094      1.674370
Ti       1.92592     13.59753      6.70574         0.168745      0.166072      0.049584
Ti      13.66768      1.84807      6.71494        -0.510871      0.606913     -0.236339
Ti      13.68431     13.59278      6.75235        -0.469205      1.170011     -0.035891
Ti       1.90333      1.95821     11.20084        -0.269817      0.020157      0.813662
Ti       1.90477     13.68236     11.21018         0.229305     -0.334652     -0.236256
Ti      13.58339      2.03340     11.23193         0.795264     -1.207674     -1.457807
Ti      13.57752     13.66792     11.18371        -0.346144     -0.282645      2.846689
Ti       1.98920      5.79622      2.38628        -0.488909     -0.700098     -0.312958
Ti       1.93115      5.81805     15.55290         0.277696     -0.282618      0.472024
Ti      13.63777      5.79271      2.29671        -0.263005      0.116841      2.030375
Ti      13.66516      5.77567     15.54454        -0.829944      0.756180      1.433047
Ti       1.88085      5.87522      6.67566        -0.235365     -1.520113     -0.764927
Ti      13.59710      5.86935      6.63783         0.441676     -0.087382      1.920182
Ti       1.83353      5.94601     11.13692         0.586033     -0.328225      0.965232
Ti      13.54978      5.79766     11.08750         0.243388      1.897489      0.523376
Ti       1.90752      9.70051      2.30827        -0.138902      0.197357     -0.862788
Ti       1.92406      9.70754     15.57787        -0.278548      0.835568     -0.158422
Ti      13.65405      9.70521      2.24110        -0.444045      0.101344      1.653382
Ti      13.63835      9.71678     15.59211        -0.568585      0.697954      1.474322
Ti       1.90105      9.71203      6.68593         0.517995      0.434766      0.636074
Ti      13.57595      9.90198      6.82405        -0.628290     -1.719228      0.899028
Ti       1.89428      9.79837     11.22055         0.074779      0.052577      1.902772
Ti      13.58358      9.74377     11.20607         0.625758     -0.182655     -0.777111
Ti       5.83720      1.90993      2.31080        -0.793422     -0.788152      1.391801
Ti       5.84435      1.86027     15.64040         0.183557      1.517739      0.278332
Ti       5.80933     13.62412      2.42497         0.146241      0.229327      1.355555
Ti       5.78257     13.68625     15.49785         0.335491     -0.778837     -0.321756
Ti       5.79751      1.99644      6.75039         0.490349     -0.066183      0.275860
Ti       5.83026     13.67964      6.68374        -0.268807     -0.059227      2.467336
Ti       5.79568      1.96391     11.15279         0.487314      0.219620      0.194360
Ti       5.76737     13.68563     11.16877        -0.209250     -0.741847     -0.248427
Ti       5.85933      5.82472      2.19099         0.216345      0.045019      1.449778
Ti       5.82946      5.83149     15.49635         0.397748     -0.922532      2.035770
Ti       5.83019      5.86833      6.79999         0.595842      0.205363     -0.600980
Ti       5.80650      5.83038     11.20514         0.340412      0.643013     -0.822037
Ti       5.85543      9.65648      2.24569        -0.064130      1.284693      0.249699
Ti       5.87718      9.76386     15.50662        -0.420653      0.224205      1.057188
Ti       5.76721      9.74281      6.75390         0.377635     -0.192544      0.793674
Ti       5.80216      9.76883     11.03682         0.901411     -0.244578      2.782441
Ti       9.66014      1.82509      2.27301        -0.168613      0.919563      1.411871
Ti       9.76068      1.93105     15.53934        -0.762377     -0.548414      1.730234
Ti       9.69851     13.51527      2.38033         0.077651      0.135897      3.606383
Ti       9.68581     13.67389     15.43650         0.405559      0.236844      1.742777
Ti       9.74920      1.89752      6.70961        -0.048634      0.152103      2.392343
Ti       9.73082     13.63016      6.67033         0.227177     -0.154046      1.099583
Ti       9.67374      2.02359     11.15605        -0.019570     -0.957390     -0.170907
Ti       9.64886     13.66857     11.21427         1.078234     -0.321212      0.203986
Ti       9.76242      5.85725      2.30108        -0.026292     -0.768924      1.579166
Ti       9.82139      5.89822     15.52595        -1.095479     -0.380473      1.884413
Ti       9.75334      5.80873      6.72418         0.157803      0.107513      0.211221
Ti       9.72001      5.79962     11.13549        -0.441820      0.998271      0.925151
Ti       9.74763      9.70009      2.28988         0.448846      0.138879      0.671517
Ti       9.74986      9.73555     15.50464         0.205264      0.289309      2.907285
Ti       9.73511      9.75400      6.75356        -0.075833     -0.634689      1.518781
Ti       9.77005      9.81013     11.13558        -1.194894     -0.405600     -0.040343
O       1.77114      1.91996      0.49296         0.304128      0.306132      0.830682
O       1.88416      1.96298     13.92650         0.082212     -0.205826     -1.599705
O       1.87261     13.58986      0.59255         0.295959     -0.048085     -0.685559
O       1.79839     13.63260     13.96746        -0.055137      0.373539     -0.935979
O      13.56423      1.86719      0.63138         0.091340      0.064698     -0.025229
O      13.58787      2.06157     13.81640        -0.223211      0.107138     -1.506342
O      13.42045     13.66068      0.57712         0.084283     -0.242966      0.775282
O      13.54232     13.52268     13.82772        -0.021776      0.275774      0.372456
O       1.85143      1.92806      4.99167         0.264125     -0.394839     -0.195682
O       1.92130     13.66186      4.89789        -0.079533     -0.331001      1.072295
O      13.73184      1.74975      4.89163        -0.429388      0.601636      1.291490
O      13.72599     13.65761      5.00261        -0.072817     -0.497289     -0.277093
O       1.84342      1.96818      9.47421         0.008452      0.098743     -0.628650
O       2.07630     13.55744      9.45907        -0.378751      0.163638      0.476298
O      13.65017      2.01900      9.43754         0.001692      0.017614      0.818475
O      13.54797     13.71884      9.52008         0.118717     -0.146999     -2.062916
O       2.03211      5.65276      0.62728        -0.210047      0.623520      0.349631
O       1.93134      5.84787     13.78652        -0.323209      0.056703      0.587955
O      13.48028      5.83296      0.61207         0.631928      0.025908     -1.363152
O      13.69526      5.76221     13.81861        -0.347354      0.043586     -0.018448
O       1.85902      5.89601      4.86872         0.453807      0.198017      0.806637
O      13.59558      5.94112      4.91104         0.095310     -0.200058     -1.070897
O       1.98279      5.82835      9.38865        -0.324685      0.243708      0.493729
O      13.55112      5.91736      9.36180         0.268292     -0.380844     -0.232144
O       1.94670      9.79059      0.48888        -0.129033     -0.135790      1.390224
O       1.87189      9.83682     13.78404         0.313135     -0.572353      1.060083
O      13.55673      9.69963      0.50525         0.213585     -0.090656     -0.236225
O      13.56828      9.75530     13.87678        -0.159073     -0.293276     -0.999637
O       1.97014      9.79290      4.97396        -0.205241     -0.123218     -1.022177
O      13.48695      9.93661      5.11111         0.048813     -0.069407     -0.923695
O       1.89559      9.73664      9.51292        -0.368463      0.063303     -1.597134
O      13.62888      9.65735      9.40653         0.299431      0.321067      0.493950
O       5.86408      1.86423      0.55666        -0.249985      0.145951      0.020623
O       5.78763      1.85020     13.88324        -0.002904     -0.008948      0.113611
O       5.80918     13.68168      0.74924        -0.015050     -0.046821     -2.336600
O       5.84672     13.69342     13.71458         0.028231      0.278268      1.273576
O       5.72266      2.05417      5.00348         0.127946     -0.430263      0.437398
O       5.85619     13.79114      4.98589        -0.200766     -0.374590     -1.143624
O       5.90655      1.95051      9.40722        -0.201376      0.135016     -0.008224
O       5.58653     13.57190      9.36593         0.628446      0.381772      1.674154
O       5.92052      5.92021      0.43948        -0.334094     -0.283133      0.443312
O       5.85057      5.75357     13.78311        -0.121233      0.353445     -0.763700
O       5.95954      6.00354      5.01783        -0.524534     -0.329003      1.112318
O       5.83673      5.84245      9.41564        -0.276677      0.001444      0.904225
O       5.75335      9.73047      0.50254         0.182645     -0.047185      0.071388
O       5.78227      9.82493     13.77419         0.191457     -0.275096      0.149023
O       5.85753      9.67697      5.00659        -0.195784      0.148132     -0.024388
O       5.84285      9.71500      9.32302        -0.273807      0.160563     -0.716988
O       9.61290      1.92412      0.55709         0.163308     -0.023542     -0.581087
O       9.82875      1.92223     13.81236        -0.041459      0.395278     -0.704083
O       9.68412     13.36993      0.73647         0.251784      0.191540     -3.082366
O       9.74559     13.85283     13.72484        -0.238397     -0.505153     -0.604740
O       9.78379      1.80880      5.02890        -0.039103      0.028369     -1.895569
O       9.69891     13.54502      4.94741         0.039310      0.290587     -0.249028
O       9.68781      2.06196      9.37442        -0.047546     -0.519852      0.887334
O       9.79599     13.62286      9.45209        -0.316984      0.124398     -0.012947
O       9.59314      5.81157      0.58824         0.118676      0.081992     -0.368274
O       9.85275      5.94914     13.79440        -0.039093     -0.163734     -0.604557
O       9.76715      5.78141      4.96314        -0.073150      0.182023      0.616149
O       9.63455      5.89273      9.42155         0.178383     -0.486825     -0.664389
O       9.76823      9.69717      0.55129        -0.059413      0.107524     -0.139918
O       9.85616      9.59900     13.82643        -0.276089      0.013390     -1.881457
O       9.82696      9.67915      5.02886         0.106830      0.205331     -0.696735
O       9.65253      9.78749      9.36206         0.410659      0.261174      0.414576
O       3.85138      1.90485      2.81610         0.115078      0.457615     -0.426313
O       3.83436      1.95258     16.10033        -0.013195     -0.686854     -0.213888
O       3.90600     13.58184      2.81024        -0.667351     -0.107486      0.209883
O       3.87452     13.76193     15.89596         0.346566     -0.151288      0.415430
O       0.00878      1.98143      2.84483         0.495777     -0.334433     -0.556582
O      15.48860      1.92307     15.91426         0.271895      0.156823      0.283832
O      15.56722     13.59553      2.68368         0.245405      0.034711      0.399916
O      15.49098     13.61039     16.08369         0.221115     -0.022892      0.168736
O       3.82214      1.97078      7.25396         0.196291      0.035705     -0.409302
O       3.83905     13.63422      7.22037         0.084561     -0.068225     -0.619489
O      15.55627      1.88245      7.29279         0.129625      0.055487     -0.391124
O      15.59394     13.54715      7.14050         0.580153      0.287479      0.235788
O       3.90313      2.00811     11.59433        -0.482960     -0.267437     -0.017779
O       3.92717     13.69643     11.72168        -0.381112      0.190357     -0.238314
O      15.56143      1.94353     11.57348        -0.246655      0.267896      0.568572
O      15.58594     13.65233     11.59817        -0.313888      0.378575      0.099309
O       3.99060      5.84276      2.76795        -0.222258      0.088974     -0.269007
O       3.78537      5.73719     15.91395         0.765446      0.748924      0.098933
O       0.05196      5.71242      2.76714        -0.443899      0.926790     -0.292141
O      15.46326      5.83996     16.04495         1.251386      0.119200     -0.141394
O       3.85274      5.80759      7.16617         0.432300      0.254267      0.034583
O       0.01869      5.94219      7.02756        -0.454045     -0.057476      0.385508
O       3.90676      5.86823     11.67253        -0.394217     -0.144774     -0.265852
O      15.54791      5.97440     11.57195         0.919632     -0.704378     -0.332582
O       3.92659      9.78036      2.68046        -0.566484     -0.195999      0.267539
O       3.81471      9.72882     16.04543         0.685168      0.385379     -0.429080
O      15.54274      9.65538      2.72770         0.620947      0.512129     -0.198816
O      15.53951      9.76332     16.01414         0.397066     -0.087454      0.022129
O       3.76678      9.73821      7.13335         1.063156     -0.604272      0.073177
O      15.51352      9.78254      7.09560         0.965536     -0.349795      0.465878
O       3.82577      9.76657     11.64109         0.343203      0.107381     -0.292015
O      15.52533      9.70982     11.77635         0.722381     -0.109324     -0.629586
O       7.67149      1.91850      2.82057         0.898440     -0.388846     -0.253578
O       7.74439      1.93815     16.01401         0.332278      0.092236     -0.196175
O       7.83614     13.58404      2.75873        -0.742540      0.183215      0.596772
O       7.77195     13.61522     16.06970        -0.112809      0.306648     -0.498587
O       7.80295      1.88298      7.15133        -0.570492     -0.079872     -0.043926
O       7.72669     13.69647      7.08300         0.177117     -0.078666      0.170998
O       7.76460      1.99453     11.70665        -0.195317     -0.301897     -0.398181
O       7.72443     13.60499     11.60549        -0.344617      0.141038     -0.132537
O       7.73017      5.94072      2.84983        -0.019066     -0.690628     -0.947609
O       7.77228      5.65021     15.90097        -0.425141      0.993876     -0.138907
O       7.79577      5.82875      7.22870         0.081993     -0.150533     -0.221447
O       7.77018      5.79607     11.63144        -0.442086      0.671259      0.334168
O       7.83670      9.73689      2.62653        -0.849664     -0.375582      0.299646
O       7.78744      9.74225     16.02001        -0.185787     -0.004132     -0.584577
O       7.79916      9.81365      7.22335        -0.381057     -0.508830     -0.539208
O       7.80731      9.76044     11.53186        -0.777410      0.345096      0.303374
O      11.68197      1.97723      2.74228        -0.764864     -0.430305     -0.002609
O      11.63155      1.86435     15.99063         0.670219      0.873599     -0.112316
O      11.71673     13.59619      2.88503        -0.392628      0.227829     -0.151078
O      11.55026     13.67100     16.00618         0.450378     -0.303707      0.072644
O      11.70391      1.90915      7.25127         0.671941      0.073534     -0.409560
O      11.67993     13.67208      7.12888        -0.058610     -0.481441      0.055265
O      11.65905      1.94748     11.53816        -0.417050      0.778902      0.460065
O      11.58630     13.57906     11.61053         1.058876      0.342105      0.175729
O      11.67883      5.65051      2.65337        -0.509247      0.336631      0.191209
O      11.64195      5.84643     16.11328         0.805148     -0.136710     -0.737488
O      11.75121      5.77674      7.12977        -1.711124     -0.084573      0.105692
O      11.60769      5.82159     11.47412         0.290188     -0.231041      0.376861
O      11.70561      9.75851      2.75679         0.128674     -0.318882      0.029496
O      11.57549      9.68847     16.03159         0.860428     -0.298269     -0.140486
O      11.68641      9.82769      7.37041        -0.378978      0.032569     -0.624673
O      11.68651      9.76712     11.57847         0.115136     -0.240436      0.202922
O       2.01838      3.89498      2.86883        -0.035733     -0.361084     -0.519715
O       1.85390      3.90757     16.02025        -0.181704     -0.051086     -0.230647
O       1.99293     15.57106      2.66878        -0.353802      0.431024      0.188008
O       1.76932      0.02799     16.06750         0.620631     -0.446316     -0.082556
O      13.69467      3.87381      2.83031        -0.397418     -0.180807     -0.175729
O      13.66194      3.84552     16.02310        -0.752623      0.905813     -0.294193
O      13.67547      0.03154      2.75499        -0.267922     -1.123456      0.204535
O      13.54047     15.52425     15.97797         0.079863      0.805187     -0.010625
O       1.82990      3.86587      7.17221         0.284222     -0.041565      0.046995
O       1.96859     15.54759      7.27707        -0.483910      0.233190     -0.580446
O      13.70709      3.95962      7.12817        -0.031779     -1.151369     -0.038015
O      13.64942     15.55801      7.05128         0.216837      0.475592      0.655559
O       1.85818      3.88355     11.70533         0.193907      0.661284     -0.398874
O       1.90572      0.02316     11.56683         0.155297      0.088198      0.444400
O      13.58642      3.98190     11.57431         0.181604     -1.170605      0.377174
O      13.56253      0.06971     11.57969         0.229362     -0.486095      0.494748
O       1.94084      7.84021      2.72341         0.290966     -0.715238     -0.081508
O       1.95440      7.86097     16.08946        -0.560859     -1.458427     -0.420569
O      13.61984      7.75690      2.75840        -0.014262     -0.060326     -0.261530
O      13.67694      7.83584     16.09967        -0.496866     -0.948696     -0.456164
O       1.87215      7.71763      7.12194         0.515704      1.561130      0.243497
O      13.49174      7.76492      7.12280         0.613241      0.798904      0.154009
O       2.03708      7.86918     11.53524        -0.593073     -1.291886      0.238850
O      13.66564      7.73706     11.55769        -0.652290      0.346603      0.600923
O       1.95252     11.66363      2.69483        -0.186855     -0.642399      0.490350
O       1.86255     11.71885     16.03658         0.439423     -0.451131      0.237035
O      13.65444     11.67324      2.68408        -0.039141     -0.391343      0.137116
O      13.50531     11.68813     16.02156         0.015730     -0.678791      0.129091
O       1.96757     11.64780      7.11985        -0.546893      0.271095      0.051494
O      13.67828     11.74688      7.27375        -0.368733     -0.113267      0.126486
O       1.90098     11.75377     11.67475         0.131650     -0.276815     -0.231741
O      13.67546     11.60231     11.63808        -0.334058      0.928846     -0.247694
O       5.86814      3.86050      2.87054        -0.289351      0.783343     -1.274247
O       5.73273      3.85499     16.03106         0.179267      0.278294     -0.202225
O       5.75605     15.59139      2.83200         0.345746      0.210697      0.037124
O       5.89784     15.58480     16.15801        -0.595391     -0.439605     -0.686758
O       5.84144      3.87353      7.22268        -0.180175      0.394421     -0.099454
O       5.74542      0.04607      7.25303         0.177473     -0.370249     -0.368876
O       5.83003      3.88760     11.66831        -0.103174      0.311134     -0.212007
O       5.88591      0.09039     11.56780        -0.407722     -1.006458     -0.093087
O       5.76874      7.80798      2.73445         0.428557     -0.448111     -0.430975
O       5.82866      7.87616     15.94090        -0.141984     -1.443673     -0.319412
O       5.90249      7.81593      7.23911        -0.666445     -0.172154     -0.109426
O       5.78984      7.89352     11.63504         0.048989     -0.939231     -0.138954
O       5.85182     11.66627      2.80137         0.092004     -0.552409      0.167140
O       5.89752     11.72554     15.89112        -0.629045      0.156734      0.181257
O       5.79655     11.67143      7.20781        -0.107237      0.168159     -0.671823
O       5.74078     11.64075     11.68677         0.475887      0.641097     -0.727356
O       9.61216      3.76726      2.75962         0.192287      0.659512     -0.130513
O       9.73802      3.88165     16.13487         0.073196     -0.164279     -0.878811
O       9.67645     15.58657      2.75842         0.279671     -0.254728     -0.091570
O       9.74776      0.00097     15.96276        -0.662807      0.181779      0.050051
O       9.75413      3.78424      7.15070        -0.083182      1.307326      0.094314
O       9.76683     15.54825      7.20207        -0.352701     -0.005000     -0.037169
O       9.51820      3.87615     11.54656         1.221912      0.366503      0.265464
O       9.67087      0.03472     11.61565         0.023083      0.226132     -0.371267
O       9.78836      7.71861      2.82085         0.062444      0.298535     -0.455731
O       9.64180      7.74072     16.03282         0.043657     -0.109112     -0.439416
O       9.75523      7.76993      7.15497         0.050902     -0.075869     -0.111156
O       9.70052      7.89431     11.54255         0.169802     -1.269037      0.543010
O       9.74362     11.58464      2.80459         0.108884      0.176960      0.152056
O       9.78176     11.71775     15.81725        -0.640391     -0.439926      0.058929
O       9.70736     11.66017      7.17572         0.163009      1.008097     -0.114186
O       9.72758     11.69699     11.62625        -0.209853      0.060216      0.234272
