  # total energy = -7865.93312631 
CRSYTAL
PRIMVEC
    15.010000000000000    0.0000000000000000    0.0000000000000000
     0.0000000000000000   15.010000000000000    0.0000000000000000
     0.0000000000000000    0.0000000000000000    16.400000000000000
PRESSURE
18.5694 18.3523 8.9283 -0.111405 0.184147 0.026865
PRIMCOORD
320 1
Pb       3.62712      3.80527      4.02414         0.502504      0.069937      0.703566
Pb       3.83915      3.67471      0.06762        -0.205141      0.207458     -0.690570
Pb       3.70733     14.99563      4.07042        -0.049928     -0.186079      0.476978
Pb       3.61750     14.99213      0.02429         0.626532      0.117901     -0.471094
Pb       0.02452      3.68460      4.07245        -0.317877      0.053160      0.469892
Pb       0.07035      3.81507      0.07532        -0.272834     -0.566437     -0.695223
Pb       0.08110     14.96023      3.99314        -0.497908      0.324784      0.519232
Pb      14.93821      0.00130     16.39679        -0.063655     -0.195186     -0.410814
Pb       3.92682      3.70466      8.23315        -0.683158      0.428689     -0.386719
Pb       3.78503     14.93086      8.28095         0.011372     -0.233723      0.072456
Pb       0.10181      3.67925      8.17853        -0.499169      0.832647     -0.509344
Pb       0.11153      0.06043      8.30090        -0.586837     -0.946107     -0.730489
Pb       3.72279      3.79919     12.33876         0.236186     -0.343571     -0.263525
Pb       3.82041      0.03596     12.26508        -0.310526      0.308431     -0.228414
Pb      14.96605      3.63968     12.29641         0.344707      0.068203      0.233373
Pb      14.92805     14.99525     12.32678        -0.326415      0.025175     -0.042152
Pb       3.62128      7.51671      4.02899         0.207979      0.185386      0.109878
Pb       3.70794      7.42555      0.00447         0.187128      0.061551     -0.007200
Pb      14.88915      7.42007      4.08340         0.340173      0.347032      0.279161
Pb       0.02479      7.48627      0.02788        -0.166787      0.324311     -0.621703
Pb       3.67167      7.44853      8.24922         0.590944      0.200023     -0.435477
Pb      14.93915      7.43040      8.16254         0.064672      0.040580      0.785187
Pb       3.80648      7.54092     12.32192         0.017935     -0.688764      0.079408
Pb       0.13591      7.49471     12.36309        -0.400963     -0.189166      0.085330
Pb       3.67489     11.34000      3.96920        -0.363036     -0.341925      0.250513
Pb       3.70990     11.27897      0.06225         0.143327     -0.251606     -0.525786
Pb      14.89417     11.31819      4.11694         0.114769     -0.519666     -0.090717
Pb      14.96482     11.13751     16.36641         0.085344      0.570159     -0.202950
Pb       3.71436     11.17805      8.22707         0.156324      0.283010      0.140160
Pb      14.89786     11.21312      8.32999         0.251726      0.061663     -0.654720
Pb       3.75591     11.27585     12.35145         0.213135      0.231937      0.268735
Pb      14.99404     11.20291     12.28274         0.249323      0.512708      1.293492
Pb       7.49445      3.62818      4.14530         0.125209      0.400838      0.199548
Pb       7.46405      3.80299     16.38684         0.142883     -0.134250      0.088928
Pb       7.42434      0.02155      4.03782         0.509347     -0.382269      0.718173
Pb       7.50131      0.03006      0.07369        -0.204750      0.282505     -0.554168
Pb       7.56338      3.81385      8.30710         0.051803     -0.046645     -0.627446
Pb       7.50772     14.80231      8.31242         0.403262      0.282244     -0.325229
Pb       7.57334      3.62695     12.26924        -0.352225      0.509841      0.371643
Pb       7.49851      0.00030     12.32659         0.133394     -0.714915     -0.071560
Pb       7.43844      7.52089      4.08012        -0.235193     -0.207408     -0.027815
Pb       7.45618      7.52986      0.12165        -0.066525     -0.266104     -0.555076
Pb       7.46909      7.59260      8.23139        -0.559598     -0.187243     -0.491848
Pb       7.50895      7.32078     12.28677        -0.313407      0.843383      0.858802
Pb       7.38420     11.32910      4.07866         0.196506     -0.166014     -0.332866
Pb       7.51522     11.24072      0.10046        -0.286831     -0.325289     -0.893205
Pb       7.44669     11.19531      8.34671        -0.170579      0.076170     -0.339977
Pb       7.50391     11.16238     12.44694         0.206148      0.178187      0.203180
Pb      11.36382      3.70304      4.08373        -0.451785      0.150743     -0.025473
Pb      11.14512      3.71924     16.39807         0.459693      0.370415     -0.146723
Pb      11.23429      0.04387      4.11996        -0.169965     -0.321874      0.181593
Pb      11.11462     14.94045      0.03540         0.490785      0.476344     -0.213016
Pb      11.22697      3.76940      8.16718        -0.024491     -0.092446      0.170602
Pb      11.30121     14.97295      8.24014        -0.647580     -0.300407     -0.258357
Pb      11.31784      3.73358     12.36534         0.354531     -0.577178     -0.492511
Pb      11.23938     14.95693     12.22673         0.704854      0.757851      0.715695
Pb      11.02762      7.41888      4.09324         1.102328      0.694772      0.440410
Pb      11.20058      7.51598     16.37801         0.514237     -0.104881      0.062003
Pb      11.16434      7.50955      8.25479         0.449028      0.283150      0.082274
Pb      11.27671      7.51401     12.37102         0.457918      0.108953      0.040131
Pb      11.19290     11.31984      4.18170         0.693135     -0.620875      0.025408
Pb      11.17989     11.31257      0.10384         0.581927     -0.826933     -0.844946
Pb      11.15275     11.16496      8.19630         0.028929      0.154550     -0.015529
Pb      11.26973     11.27917     12.33502        -0.388986     -0.070244      0.241645
Ti       1.95200      1.82993      2.01805        -2.038921      0.227900      0.590936
Ti       1.85996      1.90019     14.43730         0.399794     -0.113876     -0.043210
Ti       1.80380     13.10889      2.03552         0.143721     -0.517327     -0.077327
Ti       1.90098     13.14071     14.48563        -1.592132     -0.477414     -0.859440
Ti      13.11094      1.87617      2.04470         0.907574      0.138334     -0.117108
Ti      13.11549      1.90999     14.44591         0.881780     -0.716870     -1.318631
Ti      13.06600     13.12592      2.04098        -0.301532     -0.788523      0.342313
Ti      13.08136     13.16983     14.40460         1.587462     -0.110155     -0.853444
Ti       1.89400      1.86869      6.21503        -0.381980      0.275656     -0.674268
Ti       1.78262     13.13774      6.29011        -0.040187     -0.677113     -0.694179
Ti      13.08899      1.86726      6.17682         0.515406     -0.543136      0.155789
Ti      13.05100     13.07529      6.25822        -0.185143      1.565311      0.413351
Ti       1.90891      1.82799     10.19641         0.591982      0.757868      1.213698
Ti       1.87051     13.08154     10.38496         0.242356      1.011515     -0.711248
Ti      13.17292      1.91785     10.21259        -1.033033     -0.920601      4.388780
Ti      13.12504     13.07930     10.26443         0.869200      1.440057      0.365399
Ti       1.80424      5.60160      2.09506         1.364882      0.753446      0.886306
Ti       1.91016      5.60613     14.41056        -0.375932      0.340732      0.314127
Ti      13.13332      5.64570      2.02481        -0.034597     -0.928205      0.571921
Ti      13.14226      5.62116     14.44316         0.265616      0.023072     -0.033158
Ti       1.82844      5.65943      6.26306        -0.164933     -1.553847     -0.612624
Ti      13.03934      5.62990      6.22497         0.926763     -1.267574     -0.342249
Ti       1.94592      5.58150     10.29088        -0.112029     -0.291347     -0.609966
Ti      13.22104      5.63434     10.30028        -0.323633      0.059952      0.145906
Ti       1.80897      9.38699      2.02292         0.397797     -0.339181      0.421586
Ti       1.97690      9.40882     14.35809        -1.266494     -0.520210      1.293930
Ti      13.13318      9.33642      2.11164        -0.704819      0.964551     -0.234470
Ti      13.16142      9.43327     14.50202        -0.286060     -0.333118     -0.112315
Ti       1.82599      9.34190      6.29635         0.972571      1.025533     -0.875489
Ti      13.12744      9.32090      6.21245        -0.586048      0.436526     -0.894199
Ti       1.84884      9.37324     10.29163         0.099101     -0.635106     -0.035796
Ti      13.09994      9.39772     10.45807         0.293367     -1.165195     -1.624131
Ti       5.63842      1.87221      2.12464         0.566513      0.625758     -0.160346
Ti       5.61341      1.84738     14.36866         0.029215      0.120801     -0.222591
Ti       5.61277     13.18413      1.94953        -0.302110     -0.457933      1.182670
Ti       5.61502     13.15675     14.45419         0.339950     -1.571492     -0.999406
Ti       5.67191      1.85455      6.26710        -0.197054     -0.152527     -0.206299
Ti       5.53575     13.11546      6.24392         0.199547      0.440822     -0.167042
Ti       5.69045      1.89800     10.27657        -1.303096     -0.477695      1.226864
Ti       5.63710     13.04622     10.42729         0.372814      0.170511      0.336615
Ti       5.63005      5.66967      2.12233        -0.567874     -0.004192     -0.342587
Ti       5.65423      5.59246     14.41567        -0.362676      0.658366     -0.376604
Ti       5.59974      5.65368      6.17674        -0.264940      0.375543      0.305693
Ti       5.73768      5.65483     10.26841        -1.568519     -0.891786      0.473099
Ti       5.61450      9.45446      2.07272         0.011056     -1.334068     -0.259506
Ti       5.62355      9.34436     14.49716         0.870411      0.544895      0.489190
Ti       5.57106      9.44910      6.08171         0.409841     -1.101469      1.938446
Ti       5.56636      9.34891     10.41856         0.957162      0.560517     -0.797873
Ti       9.38898      1.90012      2.09191         0.033739     -0.648260      0.987123
Ti       9.38938      1.85703     14.46537        -0.273740      0.500031     -0.043467
Ti       9.34181     13.06382      2.10197        -0.574027      0.938608      0.592574
Ti       9.34654     13.08745     14.48808        -0.160172     -0.523202     -1.359359
Ti       9.34536      1.84953      6.28786        -0.143744     -0.975162     -0.882128
Ti       9.23222     12.99318      6.14782         0.802303      2.126957      0.895496
Ti       9.33559      1.84554     10.31435         2.289207     -0.051073     -0.556333
Ti       9.44013     13.11606     10.32344        -1.453712     -0.496511     -0.537170
Ti       9.41256      5.65219      2.11721        -1.492157     -1.223974     -0.983677
Ti       9.38580      5.62741     14.38009        -0.158953     -0.743971      0.300775
Ti       9.31819      5.63220      6.22242        -1.480045     -0.761685     -0.583813
Ti       9.51972      5.64403     10.38268        -1.349119     -1.076180     -0.693083
Ti       9.37405      9.39539      2.07706         0.083728     -0.125841      1.268191
Ti       9.36544      9.31735     14.42663         0.420971      0.204809      0.408052
Ti       9.31765      9.33977      6.15975         0.246537      1.383641     -0.190617
Ti       9.33480      9.32156     10.41011        -0.355049      1.768409      0.059104
O       1.85552      1.70157      0.23350        -0.321743      0.695356      0.451555
O       2.08210      1.86195     12.64694        -0.532297     -0.075928     -0.371083
O       1.95982     13.11781      0.23798        -0.781461     -0.013741     -0.030087
O       1.87573     13.01541     12.63704         0.301064      0.649696     -0.434500
O      13.18283      1.84481      0.23115        -0.116433     -0.205184      0.109008
O      13.18701      1.84937     12.56407        -0.059070      0.382870      0.901013
O      13.13023     13.10033      0.23609        -0.585165      0.342969      0.586793
O      13.12322     13.06771     12.54221        -0.023911      0.320478      0.720021
O       1.97435      1.87259      4.34642        -0.284886     -0.382896     -0.009286
O       1.90886     13.09189      4.32793        -0.305110      0.140720      0.983455
O      13.12517      1.84614      4.31697        -0.552717     -0.064852      0.625975
O      13.01766     13.21243      4.45822         0.359473     -0.225413     -0.979901
O       1.83728      1.93660      8.38570         0.133354     -0.408640      0.297801
O       1.84473     13.22384      8.57028        -0.038086     -0.097110     -1.339295
O      13.13147      1.82270      8.53087        -0.081445      0.255948     -2.681579
O      13.12142     13.07449      8.44670         0.039976     -0.267478      0.194177
O       1.81659      5.61482      0.33147         0.265713     -0.014498     -1.056963
O       1.82971      5.49028     12.63095         0.364533      0.491284     -0.812300
O      13.28187      5.58635      0.24828        -0.419433     -0.276185      0.117539
O      13.04035      5.57340     12.61312         0.406990      0.427248      0.248906
O       1.86579      5.69358      4.40366        -0.216587     -0.144405      0.216515
O      13.20301      5.48401      4.40128        -0.611500      0.897356      0.162142
O       1.85148      5.66874      8.44012         0.279517     -0.553216      0.791882
O      13.04086      5.64724      8.50510        -0.108342     -0.248419      0.016418
O       1.76993      9.32273      0.22906         0.381317      0.559729      0.249971
O       1.79249      9.40646     12.59091         0.818104     -0.337297     -1.506297
O      13.20343      9.37625      0.28884         0.115537      0.300578     -0.237199
O      13.13537      9.40520     12.66972        -0.469540     -0.473698     -0.768756
O       1.87982      9.37456      4.48989        -0.262129      0.132555     -0.562063
O      13.07462      9.30376      4.35915         0.446781     -0.178879      0.913665
O       1.91416      9.28050      8.48630        -0.129801      0.212447      0.450498
O      13.12645      9.47887      8.55279        -0.033122     -0.154490      0.410612
O       5.69336      1.81086      0.33438         0.050425      0.376282     -0.335230
O       5.64621      1.88465     12.52404        -0.328112     -0.472385      0.611783
O       5.75472     13.10969      0.19344        -0.402467      0.164346     -0.176436
O       5.71545     13.11077     12.56577        -0.728106      0.313730      0.187297
O       5.61008      1.83356      4.40101         0.074348     -0.316019      0.126339
O       5.54639     13.24194      4.41168        -0.063211     -0.519677      0.084507
O       5.62496      2.05219      8.53295         0.247272     -0.570543     -1.731726
O       5.57222     12.95863      8.64963         0.374133      0.216845     -1.524991
O       5.36320      5.47859      0.28959         0.955910      0.589082      0.549185
O       5.66705      5.67487     12.59496         0.071355     -0.167970      0.093583
O       5.68234      5.70003      4.38456        -0.059327     -0.144015     -0.875245
O       5.67198      5.70142      8.46059        -0.314060     -0.555641     -0.016778
O       5.74842      9.45019      0.22990        -0.402324     -0.358506      0.588728
O       5.62025      9.26793     12.73195        -0.418951     -0.060940     -1.787425
O       5.63690      9.46077      4.33508        -0.099406     -0.007544     -1.208774
O       5.59234      9.46268      8.59881         0.232825     -0.407614      0.283023
O       9.29841      1.91359      0.30849         0.183702     -0.412059     -0.763709
O       9.37572      1.77455     12.69555        -0.114511      0.506366     -1.240090
O       9.27588     12.97054      0.27905         0.464189      0.981383     -0.846883
O       9.45415     13.13404     12.62571        -0.153315      0.022814      0.763220
O       9.46251      1.80171      4.40246        -0.447462      0.405339      0.219173
O       9.32706     12.98920      4.30740        -0.206958      0.014673      0.513978
O       9.38908      1.75320      8.51586        -0.110645      0.430727      0.176996
O       9.33690     13.08619      8.48089         0.059442     -0.003884      0.514445
O       9.41909      5.59009      0.27015        -0.156270      0.267198      0.929357
O       9.34552      5.53666     12.52870         0.377273      0.153270      0.368398
O       9.30972      5.66135      4.35337        -0.093749     -0.271577      0.359902
O       9.44662      5.68556      8.51527        -0.235313      0.003473      0.007204
O       9.30721      9.25379      0.32132        -0.111131      0.075011     -1.123631
O       9.45908      9.40663     12.65264         0.366044     -0.524118     -1.201167
O       9.51519      9.48166      4.34433        -0.897407     -0.344614      0.076867
O       9.32280      9.35192      8.58205         0.232713     -0.101498     -0.173814
O       3.76325      1.96439      2.17341         0.007586      0.203222      0.766527
O       3.75127      1.76939     14.78599         0.403399     -0.109671     -0.011462
O       3.70267     12.94073      2.16805         1.068767      0.560977      0.568152
O       3.73538     13.09412     14.75753         0.206089      0.760305     -0.084899
O      14.95459      1.83037      2.36554         1.234630     -1.076608     -0.041336
O       0.02703      2.09393     14.58642        -0.282045     -0.400759      0.377767
O      14.93479     13.20229      2.28062        -0.184466      0.180766      0.449853
O      14.98551     12.89478     14.75712         0.346694      1.077009     -0.292812
O       3.70618      1.80996      6.51640         1.306741      0.105047      0.163673
O       3.69201     13.22367      6.52737        -0.004849     -0.149699      0.071882
O      14.92406      1.92541      6.49917         0.647839     -0.962103     -0.120575
O      14.94895     13.24978      6.47300         0.095771     -0.196436     -0.030916
O       3.81898      1.92119     10.52912        -0.694426      0.652883      0.041707
O       3.74346     12.82248     10.41036         0.302840      0.096214      1.429634
O       0.05475      1.72997     10.66950         0.144118     -0.040127     -0.647668
O       0.03184     13.33157     10.49488        -1.143317     -0.120213      0.468851
O       3.69428      5.61931      2.51226         0.371382     -0.667836     -0.433095
O       3.77089      5.70035     14.61780        -0.517375      0.224018      0.112507
O       0.02285      5.64376      2.49148        -0.922624      0.517196     -0.347949
O       0.03365      5.50546     14.64853        -1.249555     -0.099577      0.192922
O       3.70601      5.57050      6.49799         0.325649      0.090711     -0.001180
O      14.91081      5.63576      6.57505         0.816885      0.088452     -0.190041
O       3.80799      5.47564     10.68165         0.163979     -0.085709     -0.545797
O       0.05007      5.76979     10.56385        -0.215714      0.001880      0.138405
O       3.74007      9.43919      2.36219        -0.503211      0.647791     -0.065497
O       3.76803      9.15601     14.71609        -0.210305      0.351097      0.071294
O      14.97472      9.37421      2.37877         1.196334     -0.386836      0.465838
O       0.04161      9.44600     14.54645        -0.865767      0.151009      0.742736
O       3.77992      9.33535      6.46408        -1.120663     -0.047184      0.258146
O       0.00194      9.35593      6.55366        -1.015471     -0.295126     -0.067008
O       3.73157      9.56587     10.61699        -0.570209     -0.137673      0.362325
O       0.01143      9.15881     10.63794        -0.040747      0.134803     -0.138086
O       7.54222      1.69221      2.39084        -0.936035      0.257141      0.174720
O       7.45289      1.90264     14.62991         0.400750     -0.056603      0.471900
O       7.43896     13.24068      2.39814        -0.395226      0.207298      0.056500
O       7.45974     12.95987     14.63434         1.456641      0.309330      0.177319
O       7.51228      1.95466      6.58609        -1.120886     -0.137822     -0.281803
O       7.39857     12.92855      6.53962         0.496037      0.323634     -0.089015
O       7.50681      1.73260     10.62948         0.723767     -0.561695      0.146574
O       7.56542     13.32332     10.50076        -0.356736     -0.168172      0.507690
O       7.48391      5.90901      2.12935         0.049725     -0.760372      0.584018
O       7.48687      5.53301     14.79498         0.422496      0.113661     -0.197014
O       7.43489      5.67878      6.45098         1.216060     -0.327893      0.497638
O       7.51462      5.74749     10.56772         1.404029      0.245643     -0.112685
O       7.47781      9.27694      2.45433         0.021007     -0.194132     -0.173002
O       7.54851      9.49814     14.61155        -0.814881     -0.377387      0.448933
O       7.49498      9.34265      6.55753        -0.602742      0.405342     -0.423696
O       7.46712      9.15613     10.79485         0.991833      0.250116     -0.680233
O      11.25341      2.01115      2.21239         0.021077     -0.015322      0.605526
O      11.27465      1.77142     14.65689        -1.526190     -0.146225      0.693633
O      11.14191     12.88035      2.35147         1.411266      0.034367     -0.288372
O      11.25506     13.14507     14.75021        -0.880381      0.522486      0.297980
O      11.19119      1.93398      6.50539         1.036816     -0.000316      0.149797
O      11.13199     13.04787      6.51684         0.325844     -0.047554     -0.220367
O      11.31270      2.05904     10.65253        -0.852727     -0.338989     -0.441507
O      11.29249     12.98264     10.43352        -0.093457     -0.296538      0.574666
O      11.24123      5.52514      2.31732         1.130487      0.052554      0.314563
O      11.24794      5.65118     14.76592        -0.331075     -0.052823     -0.326261
O      11.11569      5.50617      6.40121         2.150048      0.350468      0.182133
O      11.28611      5.41375     10.55466         0.370661      0.071304      0.326040
O      11.24418      9.45095      2.25965        -0.673632      0.003015      0.174076
O      11.28782      9.26381     14.86624        -0.567536      0.182685     -0.488763
O      11.23831      9.36172      6.37808         0.443958      0.301592      0.933568
O      11.26545      9.43457     10.54859        -0.590150      0.600112      0.528311
O       1.72096      3.69874      2.34630         0.747888     -0.007945     -0.176562
O       1.98681      3.76273     14.84504         0.303677     -0.261548     -0.138924
O       1.94934     14.94719      2.30283         0.041615      1.167232      0.511782
O       1.73476     14.99980     14.78532         0.119220     -0.174022     -0.613280
O      13.29511      3.77690      2.35780        -0.729033     -0.542129     -0.148322
O      12.94163      3.68420     14.66906         0.253371      2.491507      0.232361
O      12.88674     14.95677      2.33238         0.219899      0.411525     -0.108334
O      13.24155      0.05025     14.51229         0.420202     -1.657360      0.966142
O       1.69971      3.73919      6.41004         0.662402      0.122102      0.118469
O       1.82417     15.00590      6.41826        -0.203907      0.274802      0.296533
O      13.18204      3.75742      6.51966        -0.952849     -0.494955      0.114158
O      12.96338     14.99784      6.61605         0.373789      0.721666     -0.683580
O       1.82601      3.71989     10.53940        -0.122580     -0.434769      0.089980
O       2.09835      0.00035     10.42576         0.099838      0.067453      0.825450
O      13.26955      3.74429     10.67844         0.238232      0.466627     -0.671072
O      12.99650     14.96608     10.67251         0.329073      0.384954     -0.857649
O       2.02428      7.52556      2.22052        -0.815947     -0.264549      0.656058
O       1.73098      7.53350     14.71888         0.312479     -1.217701     -0.344533
O      13.17027      7.49071      2.27534        -0.371832     -0.898895      0.601093
O      13.12422      7.49032     14.85102         0.556961     -0.344563     -0.819964
O       1.82989      7.45147      6.55618         0.104695      1.306357     -0.121926
O      13.14821      7.43819      6.60045        -0.739268      1.227531     -0.501408
O       2.11877      7.41619     10.52056        -0.228647      1.704482      0.648642
O      12.92228      7.50314     10.58092         0.279505     -0.552054      0.324821
O       1.75793     11.28211      2.29250        -0.020164     -0.971467      0.435497
O       1.98530     11.22607     14.69551         0.234288     -0.041936      0.286969
O      13.13966     11.18679      2.43582         0.258597      1.820941      0.094953
O      13.04798     11.32593     14.67134        -0.413918     -1.803209      0.326042
O       1.74656     11.25977      6.68862         0.481917      0.175520     -0.644230
O      13.20754     11.24784      6.35788        -0.120125     -0.944832      0.348595
O       1.65130     11.25771     10.53411        -0.033928     -1.448766     -0.095870
O      13.27435     11.25470     10.70724         0.036243     -0.243281     -0.687607
O       5.76347      3.81145      2.44523        -0.123209     -1.221207     -0.018816
O       5.53447      3.71327     14.64419        -0.129202     -0.151594      0.359359
O       5.49335      0.01167      2.31783        -0.175708     -0.305549      0.300275
O       5.63833     14.95277     14.65270         0.206400      1.449966      0.206817
O       5.60934      3.70361      6.43336        -0.188164      0.945968      0.203040
O       5.81972     14.96959      6.68608        -1.089023      0.161855     -0.443441
O       5.90661      3.76618     10.56239        -0.591064     -0.121033     -0.033185
O       5.49950     14.95207     10.48267        -0.085731      0.498059      0.339151
O       5.51043      7.55454      2.25596        -0.170107     -0.414470      0.299480
O       5.72521      7.45554     14.77441         0.102461     -0.020152      0.322395
O       5.69370      7.53516      6.47555        -0.589430      0.149417     -0.083116
O       5.52701      7.48982     10.59045        -0.455696     -0.024742      0.220571
O       5.67185     11.27059      2.21223         0.407882      1.274529      0.787788
O       5.48447     11.26163     14.60186        -0.189520     -0.779222      0.320214
O       5.50752     11.26785      6.57404         0.135716     -0.318794     -0.530631
O       5.87847     11.15985     10.76904        -0.322454      0.810570     -0.164338
O       9.27579      3.71685      2.45877        -0.346994      0.889216     -0.198239
O       9.32070      3.76569     14.83503         0.611608     -0.846066     -0.670996
O       9.50304     14.91413      2.36198         0.029664      1.296851     -0.349473
O       9.26094      0.00840     14.76618         0.100948     -1.209784      0.443497
O       9.25947      3.72378      6.58513         0.328333      1.149304     -0.166576
O       9.18332     14.97242      6.47047         0.432003     -0.797481     -0.165521
O       9.21734      3.70868     10.52980        -0.031501      0.517089      0.052187
O       9.60577     14.99572     10.62307        -0.455254      0.180153     -0.194985
O       9.44029      7.48069      2.45947         0.041901      0.756780     -0.254414
O       9.29601      7.42919     14.58236         0.074425      0.439603      0.538689
O       9.42168      7.54044      6.40463        -0.127111     -1.325049      0.331883
O       9.55136      7.50264     10.59586         0.201785     -0.810372      0.414334
O       9.01431     11.24774      2.21660         0.565569     -1.090582      0.513364
O       9.47661     11.14284     14.67279         0.387808      2.199224      0.472970
O       9.28504     11.20602      6.57121         0.454309     -0.533775     -0.178820
O       9.27894     11.25388     10.69756        -0.005776     -0.446853     -0.358273
