  # total energy = -7879.03652038 
CRSYTAL
PRIMVEC
    15.2000000000000000    0.0000000000000000    0.0000000000000000
     0.0000000000000000   15.2000000000000000    0.0000000000000000
     0.0000000000000000    0.0000000000000000    17.000000000000000
PRESSURE
8.68692 9.17136 4.79532 -0.051968 0.171705 -0.011925
PRIMCOORD
320 1
Pb       3.69108      3.87329      4.23540         0.205627     -0.380143      0.208281
Pb       3.83310      3.86644      0.08403        -0.221930     -0.238271      0.116474
Pb       3.64402      0.10754      4.34586         0.377195      0.019792     -0.027265
Pb       3.90211     15.19943      0.01323        -0.581772     -0.223951      0.180903
Pb      15.09902      3.91193      4.15710         0.658401     -0.177231      0.849525
Pb       0.02510      3.68469     16.97268         0.181252      0.360417     -0.178250
Pb       0.00206      0.17255      4.28464        -0.330309     -0.270152      0.488939
Pb       0.04405     15.17502     16.86647         0.376133     -0.338346     -0.040559
Pb       3.85837      3.71542      8.45101        -0.406743      0.845831      1.009600
Pb       3.77266     15.06055      8.57936         0.043019      0.269550      0.390467
Pb      15.15806      3.78124      8.51829         0.128013      0.026956      0.559010
Pb      15.12064     15.09648      8.66776        -0.220217      0.293234     -0.009057
Pb       3.79594      3.84288     12.72551        -0.087551     -0.397251     -0.516254
Pb       3.82977     15.13239     12.69989        -0.311139     -0.162238     -0.040718
Pb       0.04327      3.60696     12.74209        -0.340905      0.187121     -0.120740
Pb       0.05940     15.16846     12.75236         0.083364     -0.408463      0.099431
Pb       3.62662      7.73206      4.28526         0.276518     -0.428974      0.287401
Pb       3.93960      7.61494      0.05105        -0.407117      0.122572     -0.091437
Pb      15.15663      7.75702      4.18797        -0.469870     -0.778739      0.339564
Pb       0.14601      7.65258     16.90170        -0.364635     -0.254230      0.182761
Pb       3.72350      7.58163      8.41900         0.261280     -0.042207      0.243155
Pb      15.08905      7.50088      8.50123         0.510683      0.216137      0.734209
Pb       3.85699      7.53415     12.61422        -0.994138      0.103781      0.264765
Pb      15.13654      7.42071     12.65246         0.104718      0.818809      0.422898
Pb       3.57834     11.48222      4.28608         0.252760     -0.226009     -0.214247
Pb       3.93610     11.38218      0.19530        -0.368765      0.104983     -0.165426
Pb      15.10730     11.50504      4.18765        -0.134251     -0.277223      0.466616
Pb       0.10926     11.41926     16.95222        -0.115461      0.182117      0.088814
Pb       3.76160     11.36629      8.48823         0.107335     -0.429806     -0.188109
Pb      15.00439     11.38197      8.51659         0.374066      0.122620      0.291800
Pb       3.77656     11.28817     12.73812         0.131355      0.742707     -0.151765
Pb       0.01437     11.22312     12.72165        -0.592930      0.450111      0.425860
Pb       7.57637      3.75434      4.10633         0.060289      0.269743      0.516609
Pb       7.55546      3.76868     16.96877         0.232958      0.169964      0.877670
Pb       7.60372      0.05410      4.19596         0.108494     -0.473297      1.166937
Pb       7.61013     15.17094      0.02501        -0.272609     -0.306679     -0.388471
Pb       7.67051      3.88748      8.30941        -0.347878     -0.707724      0.244173
Pb       7.58078     15.10038      8.31898        -0.107450      0.286955      0.528493
Pb       7.49489      3.80040     12.72988         0.393821     -0.669937     -0.474692
Pb       7.61269      0.05992     12.71674         0.084562     -0.388774      0.097818
Pb       7.63328      7.68230      4.36933         0.270598     -0.301851     -0.242851
Pb       7.42605      7.66349     16.96846         0.761760     -0.597594      0.575512
Pb       7.60294      7.58568      8.40639        -0.585887      0.093919     -0.117575
Pb       7.56556      7.48921     12.71774         0.436094      0.442338      0.117656
Pb       7.57006     11.39401      4.19935         0.251851      0.098888      0.111622
Pb       7.69165     11.38650      0.00958        -0.583485      0.151284     -0.186874
Pb       7.51126     11.46408      8.38506        -0.006832     -0.061817      0.434911
Pb       7.45027     11.22031     12.68883         0.745653      0.756633      0.435236
Pb      11.44401      3.64614      4.13826        -0.122560      0.684080      0.117792
Pb      11.44162      3.72780     16.99897        -0.152877      0.053826      0.405839
Pb      11.43059      0.02385      4.16673        -0.187191     -0.303953      0.654823
Pb      11.46009     15.10832     16.90228        -0.211709      0.089979     -0.409996
Pb      11.33530      3.80604      8.44926         0.516286     -0.682833      0.361110
Pb      11.26232     15.16464      8.42583         0.346706     -0.017036      0.433122
Pb      11.40554      3.79962     12.80019        -0.006198     -0.505325     -0.263268
Pb      11.39424     15.10159     12.81684        -0.306179     -0.037939     -0.247267
Pb      11.40682      7.76627      4.14685         0.154617     -0.859930      0.104292
Pb      11.29260      7.51516     16.94364         0.539383      0.398561      0.484516
Pb      11.28691      7.50749      8.41082         0.281409      0.638131      0.610384
Pb      11.28794      7.40133     12.73422         0.252973      1.313299      0.209756
Pb      11.43295     11.41937      4.13025        -0.457585      0.046508      0.612428
Pb      11.35179     11.44233      0.02439         0.175291     -0.388099     -0.974164
Pb      11.29794     11.46824      8.50363        -0.030868     -0.055670      0.555153
Pb      11.42388     11.37402     12.85083        -0.104473     -0.285248     -0.217225
Ti       1.89315      1.88974      2.22962         0.460346      0.076346     -1.313167
Ti       2.02051      1.82771     14.93692        -1.184660     -0.219422      0.805903
Ti       1.67820     13.38079      2.41241         1.348047     -0.952432     -1.008074
Ti       2.03141     13.24463     15.00390        -1.942883      0.489821      0.180420
Ti      13.33776      1.79278      2.14051        -0.205574      0.668560     -0.047847
Ti      13.31932      1.90571     15.02142         0.304724     -0.979727      0.038045
Ti      13.15267     13.30311      2.18500         0.854266     -0.147661     -0.284368
Ti      13.29837     13.20059     15.02705         0.507239      0.310168     -0.439999
Ti       1.89272      1.88376      6.69984         0.147706     -0.181103     -1.331024
Ti       1.79180     13.30530      6.57778        -0.572956     -0.341377     -0.242815
Ti      13.36138      1.90366      6.57054        -0.336233     -0.141493      0.105731
Ti      13.24753     13.31428      6.58157        -0.807842      0.349048     -0.625347
Ti       1.96035      1.84813     10.74165        -0.782219     -0.484186      0.724820
Ti       1.85058     13.17999     10.71947         0.090807      1.937335      0.037321
Ti      13.24634      1.79068     10.81054         0.499647      0.665322     -0.568124
Ti      13.21440     13.26529     10.84162        -0.266925     -0.031063     -0.920794
Ti       1.85578      5.73230      2.25131         0.829341     -0.551668      0.810147
Ti       1.90517      5.65769     15.00805        -0.647919      0.177688     -0.564001
Ti      13.31501      5.68046      2.18710         0.095054      0.971575     -0.436486
Ti      13.31197      5.70877     15.03009         1.423451     -0.331440      0.350502
Ti       1.87133      5.67033      6.55000         0.064360      0.146255     -0.532158
Ti      13.25068      5.70005      6.61394         1.059604     -0.055852     -0.300903
Ti       1.83353      5.63812     10.79977         1.140990      0.527500     -0.897974
Ti      13.27913      5.61011     10.79869         0.235686     -0.186889     -1.018165
Ti       1.85014      9.50138      2.24805         0.722779      0.885861     -0.715563
Ti       2.01221      9.53642     14.95778        -1.079875     -0.116195      1.771670
Ti      13.34702      9.53971      2.08967        -0.395057     -1.040520     -0.160115
Ti      13.39947      9.44956     15.00355        -1.252718      1.178569     -1.696580
Ti       1.84159      9.49903      6.55498         0.534808     -0.465574     -0.090107
Ti      13.23769      9.51114      6.57199        -0.061552     -0.097745      0.615728
Ti       1.86625      9.51565     10.64415         0.069254     -1.366272     -0.103133
Ti      13.24811      9.46670     10.65049        -0.688984     -0.281785      2.269920
Ti       5.67306      1.81712      2.36513        -0.155901      1.268655      0.393376
Ti       5.72609      1.87142     14.98229        -0.449244     -0.816280     -0.832169
Ti       5.59593     13.30226      2.38005        -0.147131     -0.141466     -1.449693
Ti       5.65790     13.23019     14.98019         0.894143      0.008075     -0.554078
Ti       5.66990      1.88856      6.60441         0.882154     -0.915401     -0.917230
Ti       5.55247     13.27810      6.43303         1.068393      0.131078      0.202004
Ti       5.73644      1.78865     10.69300        -0.181604      0.181101      0.717336
Ti       5.70919     13.19325     10.74328        -0.951253      0.644036      0.038192
Ti       5.72202      5.77398      2.39427         0.005692     -1.535609      0.020110
Ti       5.65707      5.60777     15.01220        -0.045583      1.270225      0.550354
Ti       5.66178      5.62935      6.39299         0.285114      1.827067     -0.112733
Ti       5.74059      5.68846     10.59333        -1.178114     -1.350102      0.391743
Ti       5.68965      9.49199      2.35947        -0.155649      0.234578     -0.837696
Ti       5.71182      9.50603     15.04276        -0.891985     -0.001290     -0.156116
Ti       5.70309      9.47075      6.46538        -0.413021     -0.178810     -0.126633
Ti       5.66480      9.40752     10.72897        -0.864577      0.622692     -0.240785
Ti       9.46795      1.83606      2.21011         0.939716      1.432661     -0.276026
Ti       9.48930      1.89399     15.01382         0.469953     -0.378820     -0.375552
Ti       9.42154     13.30901      2.20418         0.002404     -0.177989      0.617802
Ti       9.39979     13.28465     14.94889         0.653528     -1.074354      0.053423
Ti       9.55248      1.91614      6.46445        -0.919520     -0.446765     -0.007103
Ti       9.46343     13.28624      6.40286        -0.198844     -0.014963     -0.857546
Ti       9.53451      1.91175     10.75679         0.117089     -0.887382     -0.165482
Ti       9.38001     13.26458     10.75069         1.565049      0.243134      0.453914
Ti       9.53022      5.67089      2.30249         0.627379     -0.177329      0.800512
Ti       9.52172      5.64162     15.07772        -0.566907     -0.410868      1.126031
Ti       9.53027      5.70092      6.41401        -0.833569      0.415247     -1.918116
Ti       9.47006      5.62436     10.65934         0.525137      0.516483      1.365524
Ti       9.51856      9.48998      2.15577        -0.006996     -0.265553      0.066732
Ti       9.52285      9.43204     15.02996         0.540207      0.327424      0.268801
Ti       9.45149      9.55079      6.56672         0.031112     -0.376034     -1.106668
Ti       9.47939      9.43908     10.77293         0.271575      0.919370      0.414422
O       2.04587      1.71031      0.44552        -0.374537      0.634211      0.502092
O       1.97048      1.66829     13.18558        -0.160051      0.876918     -0.650375
O       1.72697     13.40940      0.66797         0.306441     -0.303236     -0.758643
O       1.82693     13.27031     13.27879         0.473729     -0.276949     -1.167979
O      13.37793      1.73308      0.37861        -0.394940      0.249771      0.072604
O      13.36870      1.86486     13.24949        -0.261101      0.196965     -0.123787
O      13.13035     13.20525      0.40494         0.169990      0.701454      0.014020
O      13.27044     13.23341     13.23679         0.006888     -0.109911     -0.956045
O       1.94782      1.87679      4.84564         0.027609     -0.198144      0.410348
O       1.65336     13.25669      4.75490         0.751624      0.080332      0.046372
O      13.35919      1.87406      4.80676        -0.141907      0.224171     -0.969113
O      13.15909     13.21978      4.82356         0.163528      0.091022     -0.859772
O       1.85590      1.85272      9.00004        -0.046518      0.013280     -1.175089
O       1.70027     13.21529      8.90101         0.575075      0.002049      0.517975
O      13.33335      1.86917      9.03235        -0.390552     -0.072195     -0.943828
O      13.26368     13.32302      8.99865        -0.047556      0.005703     -0.037273
O       1.91102      5.69229      0.51471         0.063755      0.058103     -0.958771
O       1.96073      5.62116     13.20777        -0.091328      0.143039      0.046362
O      13.29964      5.65416      0.41743         0.015178      0.254787      0.114412
O      13.39490      5.61948     13.23571        -0.181190      0.152185     -0.311794
O       1.94096      5.61475      4.76235        -0.301296      0.218244     -0.268676
O      13.37095      5.82617      4.91260         0.081386     -0.320227     -1.844476
O       1.76707      5.69591      9.03508         0.370554     -0.217119     -0.494204
O      13.30961      5.64939      8.98347        -0.196586     -0.387980      0.173825
O       1.84728      9.57541      0.46632         0.430144     -0.448511     -0.071766
O       2.03638      9.69925     13.25273        -0.528456     -0.391730     -1.797372
O      13.45110      9.44959      0.34844        -0.595798      0.108370     -0.368146
O      13.35958      9.55781     13.11443         0.105163     -0.348922      1.029316
O       1.80378      9.42362      4.74447         0.202864      0.320813     -0.114937
O      13.18379      9.41562      4.81412         0.487969      0.479446     -0.150351
O       1.98825      9.42708      8.88302        -0.108668      0.386388     -0.333878
O      13.11976      9.55863      8.93182         0.093307     -0.239694     -1.032464
O       5.76828      1.91193      0.62531        -0.242518     -0.459177     -1.517662
O       5.68415      1.90283     13.21213         0.151200      0.147282      0.036523
O       5.64330     13.35222      0.51248         0.205179      0.025421      1.040600
O       5.66706     13.08858     13.19100         0.163518      0.299211      0.469349
O       5.68089      1.81611      4.82961        -0.237001      0.358507     -0.654746
O       5.62838     13.24043      4.67444        -0.147776     -0.201910     -0.355496
O       5.78810      1.71669      8.95575         0.010256      0.305953     -0.856438
O       5.71551     13.27714      8.95933        -0.294514     -0.115718     -0.501097
O       5.76725      5.59235      0.61879        -0.589847      0.340503     -1.225183
O       5.40072      5.70865     13.26416         1.195418     -0.260899     -0.309038
O       5.68738      5.70866      4.61320         0.171818     -0.049072     -0.044424
O       5.75507      5.62727      8.85452         0.189576      0.184392     -0.269762
O       5.64504      9.40118      0.51713        -0.182245      0.107687      0.096252
O       5.45753      9.58040     13.26623         1.014083     -0.575681     -0.335306
O       5.85159      9.42468      4.69471        -0.354959      0.300135     -1.263070
O       5.55009      9.38946      9.01175         0.628653      0.286924     -1.585211
O       9.35876      1.95901      0.47643         0.257801     -0.204920     -1.520228
O       9.48607      1.92066     13.23089         0.050826      0.089836      0.135983
O       9.41745     13.15426      0.43359         0.231132      0.390579     -0.505638
O       9.43880     13.32174     13.20770        -0.167270      0.063996     -0.861050
O       9.59955      1.82313      4.71799        -0.155135      0.259967     -1.050892
O       9.46995     13.32602      4.61496         0.051252     -0.167999      0.208694
O       9.66205      1.88173      8.96828        -0.475413      0.267130     -0.386365
O       9.50046     13.24300      8.96445        -0.369741      0.165601     -0.568005
O       9.63247      5.56317      0.57165         0.140737      0.058782     -1.925943
O       9.46989      5.61045     13.35504        -0.096952      0.288562     -1.676508
O       9.56714      5.87047      4.62666        -0.101067     -0.484590      0.390097
O       9.57459      5.56906      8.93346        -0.439987      0.230376     -1.313161
O       9.62748      9.51396      0.37739        -0.475174     -0.106803      0.266625
O       9.48487      9.29938     13.29400        -0.548749     -0.094358     -1.415975
O       9.48226      9.47141      4.76452        -0.259081     -0.095694     -0.378347
O       9.44284      9.59667      9.01491        -0.079836     -0.495721     -0.421752
O       3.77617      1.86106      2.69281        -0.046804     -0.387260      0.018637
O       3.81032      1.73130     15.34710         1.708384      0.512654      0.187991
O       3.70226     13.30945      2.61386         0.179208      0.030745      0.545305
O       3.85485     13.38916     15.41797         0.212094     -0.225235      0.147195
O       0.02412      1.80406      2.46075        -0.899535      0.122434      0.599638
O       0.06800      1.88341     15.35574        -0.141645     -0.022662     -0.141802
O      15.00743     13.31547      2.71506         0.588604     -0.118374     -0.041718
O       0.01531     13.23240     15.37522         0.162136     -0.135703      0.106119
O       3.82749      1.81179      7.19979        -0.154046      0.110518     -1.187073
O       3.69497     13.28905      6.98049         0.717079     -0.340218     -0.702626
O       0.05947      1.80197      6.85352        -1.259757     -0.009307      0.499736
O      15.07807     13.32549      6.81789         1.279960     -0.236913      0.582643
O       3.80416      1.83670     11.03523         1.078876      0.237791      0.073278
O       3.78352     13.27731     11.15372        -0.211820     -0.438991     -0.689281
O      15.14587      1.73009     11.08733         1.030264      0.489497      0.463864
O      15.16437     13.32187     11.08424         0.295135     -0.251650      0.067922
O       3.81663      5.58851      2.68916        -0.981561      0.819562     -0.544753
O       3.75970      5.72891     15.45374         0.811786      0.165896      0.294002
O       0.04314      5.80537      2.69309        -0.648001     -0.392410     -0.028391
O      15.19998      5.61123     15.47173         1.010610     -0.279317     -0.270810
O       3.78579      5.56507      6.87225         0.442511      0.308798     -0.009453
O       0.05153      5.80604      6.93349        -0.770600     -0.539321     -0.030028
O       3.79031      5.73526     11.01705         0.360399     -0.690518      0.159872
O       0.01120      5.62891     11.14472        -0.780255     -0.622386      0.349596
O       3.77985      9.54112      2.72781        -0.135128     -0.147606     -0.063459
O       3.80073      9.42846     15.43552         0.450527     -0.324289      0.362305
O      15.19545      9.59938      2.45911        -0.621156     -0.309771      0.943365
O       0.01765      9.78197     15.25333         1.111892     -0.599428      0.016087
O       3.84295      9.48025      6.81765        -0.925264      0.132744      0.027610
O       0.00625      9.50048      6.99281        -1.445310     -0.275027     -0.517038
O       3.72395      9.50506     10.98652         0.452378     -0.104152      0.685228
O      15.14076      9.60293     10.89844         0.101777      0.158791      0.238156
O       7.65904      1.82501      2.60671        -1.317671      0.181122      0.642662
O       7.61664      2.01581     15.23990        -0.536680     -0.012016      0.538444
O       7.58497     13.27529      2.60476        -0.035346      0.354417      0.042848
O       7.54854     13.16058     15.33716        -0.137032     -0.161809      0.454570
O       7.57745      1.82938      6.86437         0.691133      0.517964      0.155757
O       7.49731     13.25584      6.83322         0.497996      0.105430     -0.237148
O       7.63864      1.86576     11.19041        -0.458780      0.262519     -0.140654
O       7.55822     13.30144     11.04292        -0.204314     -0.114041      0.483697
O       7.68739      5.72246      2.54779        -1.036379     -0.339051      0.663171
O       7.59932      5.59031     15.43586        -0.429207      0.122980     -0.562244
O       7.62845      5.71845      6.73033        -0.922421     -0.303746      0.456608
O       7.62088      5.76104     11.11709        -1.002442     -0.480269     -0.032076
O       7.57438      9.51617      2.50636         1.097444     -0.095339      0.327008
O       7.56294      9.47979     15.40069         0.193630     -0.162678     -0.117626
O       7.56309      9.43555      6.89935         0.036527      0.203204      0.411066
O       7.50222      9.38171     11.22697         0.928290     -0.301675     -0.126964
O      11.42598      1.94945      2.46065         0.977410     -0.130222      0.399663
O      11.42377      1.79320     15.33744        -0.245913      0.018736      0.220350
O      11.33970     13.38953      2.60912         0.026998     -0.689064     -0.013192
O      11.35761     13.21895     15.18675        -0.621527      0.531158      0.919128
O      11.37540      2.03077      6.82529         0.855837     -0.245032      0.208394
O      11.31541     13.15662      6.82111        -0.396278      0.674018      0.292565
O      11.39981      1.94650     11.19919        -0.466105     -0.019014      0.247098
O      11.29530     13.30430     11.10797         0.589643      0.168695      0.410290
O      11.52691      5.67326      2.64078        -0.715534     -0.166211      0.161129
O      11.50822      5.65831     15.29486        -1.426801      0.377652      0.390156
O      11.35355      5.64846      6.82226         0.319463      0.045242      0.482448
O      11.37676      5.67972     11.12769         0.036320     -0.290151      0.007268
O      11.46218      9.55711      2.54005        -0.932846     -0.242699     -0.052719
O      11.41479      9.38790     15.22042         0.357879     -0.252142      0.579451
O      11.27564      9.52692      6.88942         1.334354     -0.421441      0.143761
O      11.32071      9.26511     11.22744         0.725085      0.722239     -0.589730
O       1.80459      3.76350      2.54120         0.251956      0.421328      0.223272
O       2.04286      3.75581     15.29184        -0.262444     -0.098267      0.248038
O       1.79639      0.01204      2.66296         0.395874      0.242419      0.810141
O       1.94654     15.12734     15.26676        -0.445990      0.453258      0.766726
O      13.47826      3.79932      2.53983        -0.576306     -0.819728     -0.079300
O      13.34403      3.75271     15.50542        -0.240020      0.004322     -0.626519
O      13.27249     15.16370      2.67181        -0.006416      0.754495     -0.364944
O      13.27603     15.11525     15.31303         0.144329      0.790128      0.342047
O       1.85973      3.75060      6.96059         0.268539      0.261364      0.143820
O       1.91837     15.15108      6.92134        -0.022929     -0.154747      0.063618
O      13.44724      3.83149      6.88083        -0.437135     -0.835904      0.125272
O      13.19970      0.02817      6.84778        -0.204025     -0.239657      0.381169
O       1.90533      3.71923     11.17367        -0.092957      0.341451     -0.021881
O       2.00078     15.17811     11.10206        -0.593314     -1.146715     -0.132723
O      13.32589      3.71142     11.17133         0.032692      0.765855      0.174431
O      13.23340     15.14283     11.09995        -0.288609      0.002593      0.581284
O       1.83308      7.64793      2.54041         0.616823     -0.684389      0.480390
O       1.74911      7.63069     15.12793         0.222099     -0.231857      0.633282
O      13.33818      7.62488      2.56878         0.015526      0.440689      0.005921
O      13.52916      7.61708     15.29130        -0.363194     -0.878987     -0.002883
O       1.98770      7.57778      6.78596        -0.069901     -0.029121      0.254954
O      13.23737      7.55931      6.99508        -0.278081      1.606632      0.068489
O       1.76295      7.60473     11.03174         0.358391      0.336778      0.532864
O      13.44421      7.49108     10.89640        -0.440791      1.064060      0.750401
O       1.85698     11.35932      2.68434        -0.225690      1.171649      0.356539
O       2.07753     11.43995     15.49589        -0.023990     -0.567026      0.036725
O      13.22992     11.42063      2.45987        -0.000374      0.064196      0.622868
O      13.18388     11.36236     15.33454        -0.007397     -0.278546      0.339522
O       1.87553     11.34755      6.83981         0.084109      0.932372      0.091132
O      13.19618     11.41943      6.98322         0.515831     -1.117173     -0.402167
O       1.90674     11.40030     11.14526        -0.178882     -0.644033     -0.456185
O      13.08819     11.41070     11.01625         0.432012     -1.290765      0.173735
O       5.66448      3.73380      2.66872         0.615483     -0.073708      0.326947
O       5.62945      3.77892     15.39233        -0.267648     -0.285668     -0.030169
O       5.75626     15.16043      2.78951        -0.561332      0.282429     -0.381462
O       5.85471     15.15882     15.27862        -0.103695      0.548593      0.296632
O       5.74030      3.82941      6.75628        -0.086703     -1.291118      0.589342
O       5.73738     15.17416      6.67512        -0.641519     -0.846689      0.906328
O       5.73903      3.70150     11.00675        -0.065731      1.339901      0.273149
O       5.67249     15.09603     11.10569         0.304303      0.759977      0.225629
O       5.66869      7.60463      2.50966        -0.118605      0.006076      0.600208
O       5.72804      7.58052     15.37442        -0.206615     -0.775271      0.095160
O       5.71082      7.59458      6.68808        -0.107132     -1.136403      0.745284
O       5.58703      7.52865     10.93733         0.586420     -0.182155      0.944924
O       5.66808     11.40313      2.50472        -0.009882     -0.039994      0.649345
O       5.61289     11.32904     15.51801         0.099476      0.592540     -0.271117
O       5.68518     11.34693      6.76796        -0.194921      0.933755      0.481549
O       5.69787     11.31152     11.03823         0.112524      0.138445      0.138684
O       9.56770      3.73557      2.66749        -0.269770      0.581302      0.323911
O       9.69090      3.73636     15.39887        -0.489792      0.489718      0.019214
O       9.62830      0.02547      2.37447        -0.548005     -1.308069      0.675447
O       9.36644     15.12101     15.32675         0.213473      1.251879      0.450923
O       9.41518      3.81877      6.70701         0.197555     -0.244667      0.356019
O       9.48355     15.16767      6.66905         0.236559      0.204823      0.916468
O       9.48532      3.81526     11.07779        -0.232438     -0.117902      0.464832
O       9.52573      0.04127     11.09437        -0.300769     -0.547273      0.183149
O       9.55644      7.59938      2.42502         0.243260      0.910969      0.388471
O       9.51234      7.49624     15.40331        -0.294047      0.078956      0.354107
O       9.33797      7.55755      6.85637         1.136546      0.560415      0.358141
O       9.48250      7.54474     11.01089        -0.469167     -0.583535      0.487266
O       9.50764     11.41775      2.59540         0.094697     -0.592462     -0.114406
O       9.49685     11.30247     15.31834        -0.091554      0.601663      0.168343
O       9.34081     11.40729      6.76226         0.063360     -0.024245      0.328513
O       9.46423     11.40593     11.16854        -0.255215     -1.224975      0.012676
