  # total energy = -7878.17668916 
CRSYTAL
PRIMVEC
    15.2000000000000000    0.0000000000000000    0.0000000000000000
     0.0000000000000000   15.2000000000000000    0.0000000000000000
     0.0000000000000000    0.0000000000000000    17.000000000000000
PRESSURE
7.82151 7.68158 3.99165 0.157422 -0.146547 -0.037416
PRIMCOORD
320 1
Pb       3.92560      3.72719      4.19644        -0.638836     -0.117837     -0.118068
Pb       3.56917      3.65685     16.98953         0.043522      0.288427     -0.440259
Pb       3.98520     14.95375      4.16471        -0.744349      0.667294      0.574165
Pb       3.71287     15.14573     16.99802         0.149818      0.181527     -0.757527
Pb      15.17045      3.67302      4.28554        -0.196922     -0.216486     -0.444098
Pb      15.05039      3.84754     16.95702         1.128054      0.049748      0.478573
Pb      15.18437     14.95014      4.09840        -0.393999      0.785761      0.430332
Pb      15.12632      0.04667      0.02592         0.189000     -0.547619      0.134324
Pb       3.52496      3.78770      8.54462         0.257956      0.093059      0.140566
Pb       3.76720      0.17241      8.19696        -0.077730     -0.938833      1.239219
Pb      15.03391      3.82503      8.33847         0.675208      0.084842      0.184206
Pb       0.19119      0.10773      8.38698        -0.654066     -0.346619     -0.063712
Pb       3.74953      3.76899     12.84570        -0.023566      0.402296     -0.440060
Pb       3.79775     15.14723     12.66276        -0.094801     -0.045153      0.419098
Pb      15.17420      3.72237     12.82056        -0.337229      0.684175     -0.331838
Pb      15.07849     15.08035     12.59262         0.063819      0.782968      0.627543
Pb       3.87711      7.44722      4.14577        -0.806365      0.837177      0.199528
Pb       3.70446      7.47761      0.04670         0.143167      0.477351     -0.593794
Pb       0.00911      7.35651      4.22122         0.257341      0.426351      0.068075
Pb       0.00630      7.57918      0.20022         0.054927     -0.309976     -0.640923
Pb       3.74043      7.49352      8.58328        -0.348375      0.297732     -0.221598
Pb       0.05001      7.69365      8.50012         0.580581     -0.739616     -0.228291
Pb       3.79394      7.76837     12.91247        -0.302848     -0.344907     -0.768802
Pb      15.17411      7.77098     12.90137        -0.481855     -0.448711     -1.069769
Pb       4.05452     11.32890      4.14564        -0.910198      0.308840      0.516179
Pb       3.62248     11.37753     16.68245         0.716843     -0.043133      1.073735
Pb       0.03281     11.24492      4.25154        -0.041020      0.490796     -0.265732
Pb      15.07529     11.37268      0.05252         0.349093      0.379394     -0.671474
Pb       3.82110     11.36721      8.34739        -0.219331     -0.056432      0.692791
Pb       0.05866     11.35195      8.44434         0.304443      0.584844     -0.173962
Pb       3.89769     11.49703     12.65692        -0.062627      0.342195     -0.190381
Pb       0.01657     11.61916     12.60023        -0.417347     -0.914199      0.260490
Pb       7.63829      3.86708      4.31314         0.127118     -0.361813     -0.610390
Pb       7.60196      3.77896     16.95435        -0.327241      0.191590     -0.687332
Pb       7.57994      0.06427      4.24513         0.184392     -0.215283      0.318418
Pb       7.49783      0.02080     16.96266        -0.215939     -0.261989     -0.747831
Pb       7.37271      3.80383      8.61441         0.234527      0.391323     -0.146599
Pb       7.51082      0.04866      8.57196         0.195082     -0.430928     -0.353507
Pb       7.59872      3.66651     12.67448        -0.361913      0.241116     -0.098583
Pb       7.60426     15.17935     12.71094        -0.121332     -0.411998      0.044580
Pb       7.36827      7.55700      4.26328         1.103604      0.184357      0.104227
Pb       7.71532      7.37947     16.98467        -0.516277      0.729312      0.044874
Pb       7.59341      7.51697      8.63285        -0.033924     -0.021912     -0.173728
Pb       7.75893      7.59752     12.83839        -0.361965      0.029190     -1.082115
Pb       7.68328     11.46615      4.17276        -0.288442     -0.007007      0.210544
Pb       7.50325     11.28812     16.97308         0.081936      0.336395      0.170334
Pb       7.63738     11.23286      8.42331        -0.277829      0.607207      0.822423
Pb       7.69398     11.41286     12.83155        -0.452246      0.152125     -0.776885
Pb      11.38452      3.76362      4.36404        -0.378941     -0.289790     -0.310124
Pb      11.39970      3.95899     16.94908        -0.592232     -0.583765      0.140549
Pb      11.27147     15.19538      4.28824         0.391848     -0.023007     -0.060223
Pb      11.25666      0.05834      0.01957         0.672504     -0.068019     -0.504067
Pb      11.33107      3.75532      8.49075        -0.013246      0.317287     -0.403867
Pb      11.44526     15.13353      8.67798         0.039275      0.226282     -0.920072
Pb      11.47771      3.79328     12.64767        -0.220244      0.276913      0.279389
Pb      11.31514      0.01533     12.76882         0.734705     -0.402526     -0.167839
Pb      11.34158      7.42886      4.34778        -0.330317      0.733791     -0.371598
Pb      11.40873      7.59847      0.11988         0.017763     -0.120698     -0.570475
Pb      11.50653      7.69126      8.40044        -0.973727     -0.504704      0.476811
Pb      11.47324      7.69078     12.68084         0.204856     -0.492372      0.383032
Pb      11.42352     11.51529      4.28776        -0.199475     -0.237664     -0.521558
Pb      11.33364     11.20586      0.11695        -0.162218      0.439401      0.129434
Pb      11.39374     11.30464      8.46267         0.281160      0.243775     -0.111320
Pb      11.49389     11.36228     12.94834         0.644939      0.141384     -0.646893
Ti       1.88224      1.81871      2.26810        -0.285970      0.916349     -0.370619
Ti       1.75028      1.85841     14.89411         1.454381      0.514191      2.196349
Ti       1.87505     13.22474      2.21402         0.527141      0.286627     -0.014521
Ti       1.78336     13.31207     14.94545        -0.074252      0.740337     -0.414166
Ti      13.23119      1.89147      2.21601         0.086700     -0.678868      0.433560
Ti      13.27909      1.92814     15.03034        -0.682370     -0.514455     -0.115952
Ti      13.25004     13.23165      2.07326        -0.244080      0.560806      1.294100
Ti      13.23137     13.38295     14.99878         0.674525     -0.745351      0.398621
Ti       1.87421      1.89544      6.24095        -0.069268      0.362755      0.081444
Ti       2.01094     13.27256      6.41397        -1.759004     -0.178592     -0.346855
Ti      13.18486      1.81167      6.49611         0.828397      0.391465      0.327942
Ti      13.31975     13.26549      6.56795         1.105883      0.682501     -0.553380
Ti       1.80778      1.94026     10.81462        -0.087665      0.322698     -0.446660
Ti       1.97944     13.35904     10.58888         0.182567     -0.015768      0.561280
Ti      13.24779      1.97455     10.64633         1.261425     -1.062649      0.537932
Ti      13.29905     13.29780     10.57923         0.010751     -0.215725      1.065757
Ti       1.88433      5.65415      2.25931        -0.513160     -0.690869     -0.194905
Ti       1.78990      5.80018     14.90641        -0.116019     -1.771159     -0.521252
Ti      13.20355      5.63805      2.33864        -0.143419     -0.185306     -1.058132
Ti      13.26159      5.71859     14.98197        -0.195502      0.717818     -1.119164
Ti       1.93079      5.61115      6.43554        -2.108642      1.354240     -0.210192
Ti      13.15873      5.71676      6.51213         1.672278     -0.711134     -0.172115
Ti       1.82835      5.68378     10.82955        -0.286551      0.870465     -0.016534
Ti      13.30993      5.73737     10.65938         0.111444      0.206434      0.620851
Ti       1.95265      9.55123      2.19767        -0.206067     -0.795814     -0.404327
Ti       1.81578      9.52305     14.88963         0.652255     -0.377552      1.850303
Ti      13.32432      9.44275      2.27725        -1.040711      0.329815      0.497188
Ti      13.32656      9.49541     15.07145         0.007003     -0.364816     -1.887364
Ti       1.95006      9.42321      6.40293         0.256349     -0.451983      0.839420
Ti      13.35001      9.50267      6.41710        -0.831507     -0.028770     -0.002595
Ti       1.95831      9.56973     10.77806        -0.974658     -0.911815      0.149502
Ti      13.25890      9.49677     10.66218         1.194736      0.732584      2.540526
Ti       5.66626      1.94469      2.23279         0.248693      0.329349     -0.350648
Ti       5.66581      1.94879     14.92098        -0.642729      0.037302      1.397456
Ti       5.72893     13.38543      2.07419        -0.990852     -1.359108     -1.020622
Ti       5.69701     13.27979     14.87523         0.044275      1.101320      0.575326
Ti       5.70195      1.95427      6.49033        -1.024772     -0.753735     -0.900826
Ti       5.79793     13.26029      6.58137        -0.213969      0.342278     -0.465041
Ti       5.61301      1.84301     10.71651         0.314233      0.875413      1.205667
Ti       5.83911     13.30824     10.62670        -0.809960     -0.202082      0.477780
Ti       5.65640      5.70029      2.15013         0.442310     -0.305110      0.206686
Ti       5.56216      5.79463     14.82197         1.105546     -2.063828      1.238773
Ti       5.59374      5.73198      6.48877         0.791700     -0.830782      0.026490
Ti       5.63369      5.74709     10.74802        -0.286524     -0.933259      1.180334
Ti       5.70767      9.49549      2.14655        -0.521324      0.148229     -0.841742
Ti       5.68137      9.46817     14.96489        -0.471851     -0.011174      0.582893
Ti       5.69179      9.44464      6.50071        -0.888073     -0.456810      0.515928
Ti       5.70183      9.48002     10.80697         1.086662      0.962638      0.256113
Ti       9.43446      1.84406      2.14593        -0.273292      1.541057      2.388416
Ti       9.47174      1.88398     14.94838         0.016241      0.663431      0.357071
Ti       9.45919     13.37961      2.16091         0.747662     -0.982909     -0.101327
Ti       9.53068     13.28994     14.96044        -1.242706      0.627654      0.711298
Ti       9.37481      1.85844      6.60110         1.134559      0.461516      0.035923
Ti       9.54668     13.31304      6.58904         0.097012      0.132010     -1.024655
Ti       9.51144      1.76167     10.69195        -0.630182      0.880780      0.593350
Ti       9.64142     13.17222     10.63806        -0.779558      1.107523      0.370143
Ti       9.39110      5.69648      2.29057         0.320211     -0.652148      0.402591
Ti       9.40328      5.71711     14.81890         0.818940     -0.613567      3.781949
Ti       9.39955      5.68489      6.57623        -0.280232      0.065013     -0.423715
Ti       9.47194      5.64206     10.71296         0.321456      0.753008      0.929712
Ti       9.49131      9.49184      2.45778         0.559611     -0.330857     -0.364009
Ti       9.47243      9.54103     15.06971         0.653444     -0.354794     -0.270629
Ti       9.47263      9.49311      6.51166        -0.187351     -0.499105     -1.039621
Ti       9.54087      9.51389     10.72309        -0.482667     -1.784084      0.330093
O       1.92751      1.95571      0.43644         0.067367     -0.511905      0.450351
O       1.68049      1.83130     13.17125         0.437997      0.317030     -1.115155
O       1.85262     13.17825      0.44937         0.146005     -0.010090     -0.738587
O       1.74314     13.39696     13.15744         0.256181     -0.260626     -0.010539
O      13.17792      1.97614      0.44426         0.177054     -0.113304     -0.004457
O      13.30148      1.91239     13.25213        -0.173115      0.107950      0.040649
O      13.25394     13.31646      0.31954        -0.166210     -0.768027     -0.101357
O      13.34472     13.43396     13.23196        -0.283926     -0.342919     -0.489226
O       1.87304      1.93841      4.47302         0.085699     -0.109839      0.307885
O       1.95468     13.36384      4.62586        -0.410287     -0.394472      0.060496
O      13.28075      1.86638      4.74707        -0.249702     -0.130786     -0.573266
O      13.45221     13.34441      4.76194        -0.526283     -0.597090      0.032375
O       1.70716      2.05107      9.01890         0.853945     -0.159849     -0.026318
O       1.87433     13.33712      8.84563         0.385981     -0.031708     -0.495685
O      13.27745      1.92838      8.88281        -0.078958     -0.005705     -0.434649
O      13.32932     13.21387      8.81322        -0.404178      0.227125      0.236385
O       1.78832      5.76089      0.47587         0.441950     -0.048346     -0.235053
O       1.80224      5.71065     13.09701         0.067842      0.037511      0.747176
O      13.25581      5.59058      0.50407        -0.617103      0.099930      0.330980
O      13.39862      5.78748     13.19918        -0.498546     -0.470944      0.038538
O       1.91312      5.70476      4.63040        -0.022256      0.131282     -0.443159
O      13.15482      5.66613      4.69943         0.082445      0.385127     -0.810860
O       1.82657      5.66606      9.00776         0.028232      0.032775     -0.652400
O      13.18265      5.72310      8.87472         0.244628      0.258781     -0.469081
O       1.91871      9.50878      0.37037        -0.196820      0.122711      0.636836
O       1.89556      9.55834     13.17076         0.125335     -0.111391     -1.838636
O      13.25224      9.48900      0.47153         0.155422      0.121858     -1.076963
O      13.23329      9.36764     13.19628         0.031442      0.494534      1.171231
O       1.91714      9.37887      4.67937        -0.357908      0.044421     -1.162169
O      13.23731      9.45590      4.65531         0.682162      0.093891     -0.136423
O       1.92195      9.46967      8.98661        -0.040941     -0.120480     -0.010312
O      13.23630      9.47111      8.91754         0.103249     -0.007872     -1.132971
O       5.64304      1.97532      0.46303         0.073886     -0.018104     -0.619734
O       5.70489      1.78023     13.20163         0.198283      0.422658     -1.399235
O       5.71562     13.37665      0.27330        -0.267287     -0.305815      0.985551
O       5.81556     13.32173     13.05789        -0.425537     -0.342786      1.124405
O       5.63956      1.81286      4.70358         0.407817      0.326683     -0.164725
O       5.76229     13.25992      4.77799        -0.187925      0.245119     -0.538069
O       5.55671      1.83203      8.96330         0.301160      0.130849     -0.969171
O       5.66792     13.28825      8.84143         0.445378      0.077020     -0.527381
O       5.61526      5.72730      0.40636         0.303759      0.036489     -0.663158
O       5.73816      5.80829     13.07773        -0.218275     -0.045272     -1.108359
O       5.58469      5.76874      4.67004         0.144388     -0.176133      0.593384
O       5.68337      5.70258      8.98950        -0.224257      0.008052     -1.156552
O       5.55620      9.43491      0.37467         0.589435      0.068295      0.146017
O       5.59043      9.61683     13.17939         0.568214     -0.317107     -0.180393
O       5.76253      9.39754      4.76207        -0.400332      0.078076     -1.281232
O       5.71568      9.57681      9.05806        -0.076458     -0.188207     -1.050864
O       9.41536      1.80495      0.42354        -0.011548     -0.055649     -1.473198
O       9.52832      1.89457     13.17557        -0.291537      0.242127     -0.576155
O       9.54439     13.45492      0.37047        -0.317327     -0.195069      0.520869
O       9.49129     13.17159     13.20066         0.068593     -0.083404     -0.935896
O       9.37070      1.79986      4.82858        -0.153445      0.368088     -0.225862
O       9.54580     13.31304      4.73941        -0.204581     -0.226001      0.580446
O       9.55423      1.75137      8.92604        -0.195159      0.196924     -0.024318
O       9.65507     13.36892      8.86028        -0.114085     -0.224922     -0.061676
O       9.45320      5.56978      0.52635        -0.264487      0.845941     -0.491519
O       9.38079      5.64971     13.14005        -0.098669      0.039673     -2.550458
O       9.45109      5.54538      4.78581        -0.210178      0.218199     -0.511053
O       9.44844      5.83848      8.98431         0.288589     -0.260342     -1.772043
O       9.47805      9.50498      0.66331         0.379660      0.094124     -1.190993
O       9.60601      9.70832     13.30014        -0.400309     -0.613266     -0.095780
O       9.40241      9.60088      4.72018         0.058201      0.075931     -0.382497
O       9.43315      9.34892      8.96328         0.215708      0.271012     -1.027046
O       3.81848      1.89859      2.54184        -0.729712      0.053212      0.314513
O       3.74414      2.10852     15.20814        -0.499419     -0.375861      0.080442
O       3.81396     13.27058      2.52067        -0.025335      0.069863      0.044160
O       3.68768     13.25429     15.14928         0.723709     -0.622483      0.265408
O      15.14785      1.90567      2.61433        -0.372665      0.007212     -0.397036
O      15.16848      1.72556     15.49240        -0.772419      0.884401     -0.671181
O      15.16182     13.15091      2.45347        -0.240730     -0.021586      0.378138
O      15.11525     13.36938     15.35179         0.896983      0.179575      0.407686
O       3.75308      1.93288      6.69910        -0.038829      0.070431      0.322202
O       3.81256     13.42146      6.69657         0.312427     -0.434440      0.522144
O       0.06390      1.94876      6.73966        -1.283653      0.025422      0.095426
O       0.07588     13.26681      6.93474        -0.078656      0.037910     -0.514916
O       3.81726      2.03110     11.22556        -0.904433     -0.180191     -0.265500
O       3.84074     13.21732     10.90223        -0.223463      0.296249      0.614179
O      15.15455      1.84632     11.13418        -0.934187     -0.322500     -0.275080
O       0.00482     13.37162     10.98773        -0.245759     -0.046563     -0.317568
O       3.80662      5.63050      2.50730        -1.021553      0.700251      0.246079
O       3.72357      5.67437     15.16954        -0.210112     -0.004714      0.311739
O      15.08596      5.59982      2.46143         0.762133      0.327949      1.081335
O      15.12210      5.75302     15.39330         0.403613      0.461741      0.201052
O       3.73358      5.64855      6.85776         0.773164      0.149735      0.363779
O      15.14262      5.66667      6.63816        -0.005781      0.365662      0.513041
O       3.68339      5.41039     10.93023         1.459810      0.461488      0.596288
O      15.13654      5.79977     11.05708        -0.231534      0.051195     -0.105681
O       3.79029      9.46543      2.55602         0.346496     -0.261875      0.246697
O       3.76538      9.44102     15.25591        -0.072388      0.240706     -0.098699
O      15.18959      9.50180      2.47234         0.381655      0.245851      0.589287
O       0.00601      9.24360     15.23238        -0.625115      0.311817      0.646867
O       3.79129      9.35752      6.78816         0.098611      0.198851      0.578145
O       0.01922      9.46581      6.75898        -0.451602     -0.108986      0.257847
O       3.86356      9.65390     11.14293        -1.022002      0.286127      0.047512
O      15.15236      9.57967     11.10460         0.336215     -0.294180     -0.369832
O       7.53238      1.79095      2.67954         0.308718      0.207995     -0.374632
O       7.52762      1.78754     15.35206         0.578918      0.221687      0.002683
O       7.54982     13.28181      2.41964         0.710731      0.176975      0.452567
O       7.54774     13.41500     15.25938         0.080697     -0.370320      0.092254
O       7.51607      1.92701      6.95511         0.375408     -0.145595      0.345861
O       7.66302     13.26242      6.79147        -0.688682     -0.286096      0.583121
O       7.56928      1.72834     11.02842         0.573546      0.226249     -0.146750
O       7.69357     13.37380     11.00152         0.536843      0.353557     -0.171855
O       7.50335      5.71105      2.67229         0.615038      0.078086     -0.067908
O       7.54836      5.79281     15.30964         0.424425      0.172713     -0.065762
O       7.49075      5.75383      6.86183         0.497317     -0.528598      0.228908
O       7.58453      5.86278     10.88709        -0.426409      0.103829      0.862325
O       7.51739      9.50607      2.58921         0.743038      0.152846      0.243451
O       7.58310      9.41959     15.37080         0.326440      0.225929     -0.103010
O       7.48407      9.55270      6.86350         1.908345     -0.368164      0.294544
O       7.67648      9.48226     11.16616        -0.977453     -0.433540      0.357920
O      11.24325      1.86605      2.66180         1.143381     -0.133100     -0.206791
O      11.34630      1.93842     15.34296         0.207967      0.216180      0.032769
O      11.35240     13.29957      2.57653         0.470743      0.188902     -0.074295
O      11.34979     13.26658     15.24885         0.512784     -0.314874      0.302169
O      11.33262      1.88916      6.82631         0.038263      0.100378      0.195496
O      11.43500     13.31064      6.79499        -0.065331     -0.189246      0.264307
O      11.40785      1.97251     11.10427        -0.520795      0.109918     -0.173694
O      11.45564     13.27421     11.15344        -0.768477     -0.309781     -0.334500
O      11.26252      5.64929      2.65604         0.830823     -0.191179      0.151953
O      11.30494      5.54267     15.32652         0.304126      0.611049     -0.399860
O      11.32451      5.62467      6.78909        -0.340964      0.507329      0.519326
O      11.41328      5.64441     11.14123        -0.141936     -0.117709     -0.191276
O      11.43679      9.44390      2.66398        -1.159063      0.207589      0.122042
O      11.48173      9.54925     15.43556        -1.887240      0.343192      0.327582
O      11.34190      9.58904      6.78990         1.085184     -0.486975      0.274911
O      11.39195      9.61760     11.20386         0.207579     -0.494285     -0.469458
O       1.88571      3.75047      2.50558         0.091110      0.952908      0.295797
O       1.67438      3.83596     15.32479         0.317436     -0.546677     -0.327750
O       1.80198     15.14675      2.49553         0.379390     -0.460982     -0.126773
O       1.92705      0.01018     15.36626         0.027310     -0.106067      0.077190
O      13.16666      3.70722      2.76073         0.081780      0.776973     -0.322850
O      13.39650      3.82161     15.33976        -0.541577     -0.910237     -0.142916
O      13.30007     15.14377      2.41816        -0.116946      0.080321      0.326317
O      13.20955      0.00244     15.40932        -0.203435      0.802393      0.137372
O       1.88239      3.79408      6.76124         0.069526     -0.485239      0.135263
O       1.87595      0.06989      6.70485         0.012688     -0.761435      0.131819
O      13.21483      3.83389      6.80368        -0.143472     -0.971616      0.196708
O      13.29032     15.18166      6.89352         0.215105      0.140876      0.132725
O       1.66531      3.80208     11.18822         0.568698     -0.332303      0.238836
O       2.00010      0.06689     11.04179        -0.161541     -0.920292     -0.228656
O      13.37990      3.81907     10.93755        -0.315353     -0.006668      0.554122
O      13.12435     15.18760     11.03998         0.458195      0.365560     -0.446083
O       1.79633      7.61680      2.47771         0.223780     -0.621128      0.396822
O       1.88272      7.58380     15.28285         0.374752      0.430471      0.246116
O      13.19928      7.56496      2.40410         0.354884     -0.946641      0.849947
O      13.14025      7.53533     15.28588        -0.083903      0.785640      1.010002
O       1.87109      7.52231      6.89456        -0.098479      0.255345      0.088233
O      13.14806      7.62048      6.79180         0.586767      0.240539     -0.054148
O       1.98616      7.63459     11.16269         0.149780      0.398356     -0.218889
O      13.29289      7.63755     11.09309        -0.651974      0.160958     -0.458582
O       1.92824     11.37784      2.69053        -0.124381     -0.329302     -0.050941
O       1.74808     11.37484     15.18916        -0.136495      0.305185      0.511970
O      13.17528     11.33647      2.51931         0.407826      1.116828      0.124801
O      13.50761     11.36414     15.16176        -0.643224      0.206494      0.667505
O       1.95192     11.33238      6.74682         0.007561      0.602485      0.085646
O      13.33016     11.36837      6.86623        -0.073844     -0.386997     -0.177777
O       1.86605     11.45128     10.97856        -0.001318      0.338229      0.355919
O      13.21357     11.45552     11.09813         0.659674     -0.290823     -0.235612
O       5.68084      3.86233      2.63505         0.364882     -1.067105      0.003070
O       5.81779      3.87201     15.09733        -0.132060     -0.511448      0.318050
O       5.58301      0.01863      2.43261         0.603474     -0.654934      0.322458
O       5.46591     15.16171     15.28555         0.380955      0.322872      0.079750
O       5.65011      3.76735      6.82728         0.141203      1.090701      0.235276
O       5.68849      0.00663      6.87457         0.465345     -0.008703     -0.031965
O       5.81756      3.81464     11.00578         0.261730     -0.696756      0.367624
O       5.64569     15.17622     11.22121         0.005487      0.196267     -0.990074
O       5.73008      7.58867      2.58154        -0.653297      0.190476     -0.088922
O       5.67619      7.57917     15.22324        -0.212823      1.085077      0.309214
O       5.67549      7.51124      6.92204        -0.275884      1.115726      0.010382
O       5.43708      7.63476     11.06492         0.486623     -0.306195      0.061301
O       5.62020     11.40599      2.54257         0.822081      0.030853     -0.433937
O       5.75775     11.34978     15.39028        -0.274696      0.627089     -0.636616
O       5.56712     11.34045      6.76809         0.237172      0.707967      0.306714
O       5.88604     11.52786     11.08310        -0.488637     -1.587894      0.269053
O       9.31092      3.75583      2.51519         0.015230     -0.304940      0.525359
O       9.35318      3.84947     15.32365        -0.191926     -0.837085     -0.194552
O       9.48431     15.19429      2.74719        -0.489770     -0.380898     -0.710917
O       9.48477      0.01718     15.17770         0.308366     -0.271605      0.528837
O       9.44381      3.83386      6.94446        -0.309301     -0.974651      0.372801
O       9.42519      0.00873      6.85998         0.040678     -0.596774      0.267672
O       9.37129      3.75484     11.00608         0.210373     -0.352468     -0.002611
O       9.65634     15.11448     11.06811        -0.244057      0.765129     -0.019280
O       9.50891      7.58827      2.66946        -0.528987     -0.302038      0.177971
O       9.53761      7.64650     15.41018         0.109240     -0.508100     -0.360171
O       9.50454      7.62267      6.66552        -0.079380     -0.332077      0.700151
O       9.55438      7.57456     11.16209         0.033725      0.486169      0.296053
O       9.52333     11.44142      2.58070        -0.281639      0.371094      0.238104
O       9.41506     11.43103     15.38776        -0.060258     -0.662922      0.622540
O       9.56465     11.35328      6.93694        -0.699181      0.977454      0.093666
O       9.47144     11.34529     10.83236        -0.057429      0.941819      0.567253
