  # total energy = -7871.85422451 
CRSYTAL
PRIMVEC
    15.2000000000000000    0.0000000000000000    0.0000000000000000
     0.0000000000000000   15.2000000000000000    0.0000000000000000
     0.0000000000000000    0.0000000000000000    17.000000000000000
PRESSURE
6.87494 7.7388 -0.345056 -0.02842 -0.070828 -0.131268
PRIMCOORD
320 1
Pb       3.60988      3.87301      4.34235         0.143361     -0.616122     -0.212743
Pb       4.05416      3.94313      0.00549        -1.305318     -0.438647      0.016448
Pb       3.59187      0.26593      4.39302         0.431526     -0.423826     -0.581166
Pb       3.91011     15.13985     16.94605        -0.442287      0.527241      0.190522
Pb       0.07358      3.91825      4.20497        -1.045214     -0.486382     -0.275520
Pb       0.22935      3.89882     16.92183        -0.345621     -0.257308      0.070434
Pb      15.13520      0.32306      4.57969         0.036263     -0.670273     -0.752396
Pb       0.08437     15.03515     16.94413        -0.334755      0.705581      0.005345
Pb       4.00216      3.89491      8.37401        -0.700308     -0.521547      0.345948
Pb       3.87063     14.93635      8.79188        -0.490605      0.971193     -0.677777
Pb       0.18901      3.61857      8.73465        -1.205130     -0.019794     -0.583680
Pb      14.82618     15.10305      8.51679         1.196685      0.432600      0.689980
Pb       3.84920      3.66031     12.53740        -0.350757     -0.282277      0.324874
Pb       3.82242      0.03175     12.87821         0.032914      0.192797     -1.265062
Pb      15.13343      3.88672     12.69693         0.469786     -0.946145     -0.129524
Pb       0.09400     15.18891     12.93498         0.036508      0.145851     -1.046065
Pb       3.67782      7.68160      4.37566         0.375073      0.660580     -0.064388
Pb       3.77181      7.64648     16.97495         0.279354      0.043183      0.068235
Pb      15.02882      7.88354      4.38377         0.324656     -0.419971     -0.910664
Pb      15.10642      7.46841     16.82232         0.274095      0.523209      0.310753
Pb       3.86429      7.58345      8.30350        -0.605295      0.242567      0.380012
Pb      15.01823      7.48650      8.51888         0.457635     -0.029127     -0.493459
Pb       3.67786      7.40377     12.61428         0.254201      0.828628      0.287585
Pb      15.19708      7.36120     12.77736        -0.089675      0.402262      0.172335
Pb       3.45794     11.50751      4.40606         1.038201     -0.712802     -0.585751
Pb       4.11212     11.46500      0.33894        -0.315699     -0.761591     -0.921648
Pb      15.08033     11.52825      4.23132         0.519425     -0.223305     -0.398930
Pb       0.16139     11.37195     16.87252        -0.679502      0.048264      0.289333
Pb       3.64363     11.40431      8.57478         0.526822     -0.305176     -0.352916
Pb      15.05871     11.38929      8.62829        -0.201636      0.173097     -0.605303
Pb       3.68489     11.27407     12.69765         0.532742     -0.101533     -0.145195
Pb      15.13527     10.97119     13.02894        -0.186940      0.435592     -0.493281
Pb       7.54987      3.82797      4.28505         0.301199     -0.171588     -1.005359
Pb       7.58236      3.79560      0.14709         0.114288     -0.182161     -0.431195
Pb       7.56032     15.09029      4.24952         0.212574      0.185158     -0.223611
Pb       7.68456     15.06420     16.96857        -0.005715      0.362249      0.552991
Pb       7.71729      3.61220      8.37391         0.148777      0.905814      0.170712
Pb       7.66011     15.19145      8.51076        -0.250803     -0.293189     -0.297109
Pb       7.69161      3.80716     12.79988        -0.335332     -0.511602     -0.608632
Pb       7.57542     15.06931     12.88998        -0.042248      0.975606     -1.167733
Pb       7.78385      7.50831      4.05517        -0.503050      0.910214      0.853630
Pb       7.65065      7.73196      0.17233        -0.381006      0.451557     -0.447743
Pb       7.51079      7.65282      8.24414         0.403283     -0.377157      0.857641
Pb       7.39924      7.58775     12.63552         0.936277      0.275666     -0.476960
Pb       7.45407     11.36552      4.30448        -0.074443     -0.197202     -0.678806
Pb       7.53184     11.50154      0.02595         0.727878     -0.776164     -0.232531
Pb       7.57764     11.56819      8.64190        -0.127006     -0.429094     -0.011542
Pb       7.56009     11.32511     12.73545        -0.111535     -0.265639     -0.673958
Pb      11.39837      3.98992      4.06179        -0.320475     -0.755097      0.236651
Pb      11.32384      3.58829     16.97673         0.276312      0.482382     -0.041528
Pb      11.52761     15.14046      4.08962        -0.159352      0.402902      0.966774
Pb      11.46742     15.16583     16.96642         0.077185     -0.362296     -0.612489
Pb      11.48104      3.80498      8.46648        -0.602078     -0.003093     -0.407174
Pb      11.30363      0.04692      8.43233         0.201433     -0.631040     -0.168857
Pb      11.28772      3.63533     12.82267        -0.180179      0.485574     -0.564854
Pb      11.40589     15.17980     12.66420        -0.043951     -0.476922      0.243831
Pb      11.52381      7.58746      4.06412        -0.741254      0.148627      0.050809
Pb      11.42198      7.55689     16.90816        -0.567766      0.075062      0.276093
Pb      11.26418      7.49419      8.72846         0.083126     -0.046364     -1.178340
Pb      11.35562      7.58147     12.98057         0.244856     -0.212311     -0.797802
Pb      11.37166     11.26959      4.14373         0.426594      0.617532      0.292112
Pb      11.50094     11.47486     16.68763        -0.762151      0.209410      1.258824
Pb      11.27064     11.44949      8.53358         0.727906     -0.054824     -0.035118
Pb      11.23996     11.20108     12.47617         0.677003      0.248343      1.101972
Ti       1.80096      1.88535      2.08882         0.350496      0.492565      0.446190
Ti       1.84186      1.87985     14.87702         0.528792      1.270874     -0.658867
Ti       1.96414     13.32694      2.04957        -1.430816     -0.164608     -0.419220
Ti       2.00963     13.20790     14.88094        -1.193520      0.468549      0.123654
Ti      13.26894      1.97910      2.05602         0.933907     -0.434390     -0.155944
Ti      13.31465      1.87912     14.83559        -0.007426     -0.165838      0.631067
Ti      13.48582     13.44267      2.22705        -0.459206     -2.050052     -1.151104
Ti      13.47142     13.31100     14.89003        -1.487024     -0.168034      0.112536
Ti       1.89216      1.94407      6.62708        -0.627500     -0.977803      0.206107
Ti       1.91696     13.36454      6.62290        -1.281643     -0.234788     -0.300012
Ti      13.16620      1.93961      6.46171         0.493913     -0.033913      0.427219
Ti      13.26837     13.18194      6.48336        -0.774926      1.589797     -0.167064
Ti       1.90317      1.78741     10.56861        -0.344166      0.383295      1.642433
Ti       1.81172     13.17880     10.86777         0.924855      0.914497      0.334929
Ti      13.24368      1.78159     10.70691         0.785359     -0.113082     -0.142961
Ti      13.39169     13.12825     10.89675        -1.499439      0.778992     -1.194548
Ti       1.86552      5.82599      2.34054        -1.343519     -1.074890     -1.698892
Ti       1.99078      5.72435     14.94557        -0.401218     -0.677916     -0.237362
Ti      13.26072      5.73865      2.05420         1.102412     -0.028312      0.403742
Ti      13.15673      5.59311     14.95242         0.698330      0.320642     -0.925357
Ti       1.72475      5.66506      6.60043         0.437118      0.654453     -0.732372
Ti      13.25734      5.70130      6.38493        -0.843533     -0.990150     -1.053896
Ti       1.91343      5.60524     10.58830        -0.490816      0.043407     -0.347929
Ti      13.17528      5.54560     10.81636        -0.038339      0.801783     -0.153622
Ti       1.75649      9.49648      2.06012        -0.049620      1.137811      0.618212
Ti       1.96529      9.44867     14.95070         0.052283     -1.008941      0.042391
Ti      13.19423      9.56935      2.03964         1.042605      0.326748     -0.828401
Ti      13.21062      9.45219     15.02593         0.774094     -0.074318      0.205779
Ti       1.81878      9.58466      6.59086        -0.160485     -1.360496     -0.770617
Ti      13.24307      9.44312      6.51131        -0.861985      0.821378     -0.487358
Ti       1.84864      9.32336     10.65827         0.344998     -0.243855      0.092595
Ti      13.33537      9.28639     10.68636        -1.504879      0.942508      0.525472
Ti       5.61991      1.89600      2.20069         0.087562      0.447328      0.332932
Ti       5.68044      1.89274     15.11878        -0.097505     -0.021009     -1.546821
Ti       5.73404     13.36039      2.29801         0.414066     -0.719035      0.400436
Ti       5.74324     13.25299     14.85112         0.013817     -0.370619      1.106706
Ti       5.63793      1.92842      6.34598        -0.063676     -1.058450      0.701401
Ti       5.69476     13.36090      6.49756        -1.327156     -0.245215     -0.943379
Ti       5.74429      1.89674     10.52717        -0.473424     -1.522244      0.555350
Ti       5.65066     13.24536     10.75007         0.355286      0.588986      0.809199
Ti       5.52280      5.71024      2.34067         2.436587      0.006190     -1.023934
Ti       5.77207      5.79784     14.90945        -0.966529     -0.570669      0.636215
Ti       5.72546      5.69596      6.35934        -0.049549      0.061494     -0.838873
Ti       5.74396      5.67156     10.59518         0.568674      0.246280     -0.942169
Ti       5.50300      9.49112      2.38401         1.899385      0.106587     -0.348958
Ti       5.71192      9.44816     14.77928        -0.876245      1.090501      0.673504
Ti       5.77810      9.63774      6.53285        -1.940114     -0.323681     -1.784934
Ti       5.65361      9.48815     10.58724         0.555241     -0.264405     -0.408413
Ti       9.46970      1.81425      2.24357        -0.064517      0.916058      0.011008
Ti       9.43310      1.82407     15.00751         0.651117      0.246609     -0.502422
Ti       9.68666     13.31739      2.23972        -1.062095     -0.128267     -1.016784
Ti       9.49505     13.27620     14.84889         1.028537     -1.005055      0.404262
Ti       9.40804      1.76126      6.29986         1.130977      1.084123     -0.683251
Ti       9.45614     13.14682      6.45800         0.918782      1.824349     -0.604008
Ti       9.40889      1.81991     10.68586         0.355074      0.738315      0.828411
Ti       9.50463     13.28472     10.76851        -0.469909      0.549268     -0.960825
Ti       9.43905      5.71418      2.03109         0.243026      0.068867      0.024488
Ti       9.38012      5.69472     14.96609         1.479301     -0.412367      0.113644
Ti       9.45846      5.62239      6.43208         1.475399     -0.200661      0.357419
Ti       9.48979      5.72847     10.69141         0.209835     -1.005357     -0.084207
Ti       9.43329      9.69249      2.18196        -0.825707     -1.907857     -1.170849
Ti       9.39424      9.52134     14.89301        -0.920509      0.503016      0.300329
Ti       9.53251      9.44156      6.39579         0.705853     -0.937192     -0.664294
Ti       9.43709      9.43220     10.54749        -0.653783      0.688064      0.821374
O       1.82010      2.03366      0.33586        -0.146971     -0.428233     -0.252014
O       1.79317      2.00976     12.97196         0.430881     -0.215937      2.271725
O       1.85012     13.18374      0.11270         0.486947      0.324418      2.307546
O       1.85292     13.41224     13.07393         0.558081     -0.972388      0.496682
O      13.27984      1.77309      0.23935         0.014383      0.519051      1.574611
O      13.39224      1.73154     12.98927        -0.420409      0.511723      1.253915
O      13.43280     13.34440      0.36708         0.205871      0.192662      0.858940
O      13.43680     13.31317     13.12288        -0.261820     -0.110804     -0.498680
O       1.83275      1.88988      4.73175         0.117005     -0.168470      0.569087
O       1.83439     13.05546      4.80837        -0.037806      1.434519      1.195494
O      13.36167      1.78255      4.68190        -0.616111      0.305968      0.240066
O      13.29995     13.38199      4.69648         0.180393     -0.457825      0.025766
O       1.88239      1.85536      8.78373         0.337970      0.228544      0.127620
O       1.95481     13.23773      9.07372        -0.367533     -0.045030      0.165913
O      13.21336      1.97041      8.87453        -0.176606     -0.239537      0.428845
O      13.38299     13.25136      9.01695        -0.409159     -0.838929      0.965375
O       1.99354      5.82718      0.51128        -0.255700     -0.395658      0.657243
O       1.92392      5.74018     13.12240         0.260621     -0.486906      0.716385
O      13.28463      5.74206      0.27416        -0.185631      0.168762     -0.152794
O      13.12018      5.60731     13.04884         0.590515      0.163112      1.730310
O       1.68089      5.49729      4.74345         0.685382      0.921457     -0.036580
O      13.27893      5.79533      4.51406        -0.124976     -0.208428      1.091824
O       1.81137      5.69722      8.77779         0.348226     -0.035121      0.767146
O      13.05261      5.59682      8.99645         0.415038      0.353041      0.380864
O       1.89955      9.54493      0.26921        -0.091766     -0.042730      0.252643
O       1.92373      9.26024     13.12535         0.209621      0.704999      0.293093
O      13.23743      9.42549      0.16736        -0.168475      0.264433      1.395485
O      13.14982      9.38112     13.25192         0.228995      0.403029     -0.970556
O       1.71719      9.65842      4.71712         0.360806     -0.630918      1.171484
O      13.13235      9.58603      4.58726         0.547417     -0.819814      1.470668
O       1.74299      9.28920      8.86493         0.033097      0.299969      1.143039
O      13.29441      9.46074      8.88820         0.191594     -0.634353      0.631740
O       5.64960      1.86050      0.34859        -0.248576      0.099262      1.008016
O       5.68027      1.72152     13.24944        -0.090786      0.405066      1.704656
O       5.75122     13.24816      0.41321        -0.720939      0.122377      1.595642
O       5.77905     13.41952     13.04829        -0.409062     -0.465157      1.275749
O       5.63010      1.85526      4.54924         0.118760      0.177664      0.398510
O       5.61626     13.30024      4.66858         0.418868      0.141072      0.369836
O       5.66670      1.84179      8.72233         0.337053      0.419599      1.007605
O       5.59539     13.26880      8.93464         0.281617     -0.534464     -0.255675
O       5.56646      5.75132      0.42480         0.544578      0.172819      1.579414
O       5.62947      5.79886     13.09765         0.476147     -0.334734      0.668466
O       5.76678      5.48864      4.47490        -0.284545      0.941960      2.849980
O       5.80170      5.61895      8.75767        -0.509681      0.148284      1.314776
O       5.67871      9.56865      0.48298        -0.274780     -0.350647      1.550815
O       5.65324      9.46955     12.95874         0.083748     -0.289532      0.944415
O       5.56238      9.56916      4.66539         0.062736     -0.187012      0.909618
O       5.78353      9.57231      8.75161        -0.212277     -0.013677      0.289598
O       9.55016      1.66372      0.40953         0.272419      0.509332      0.450199
O       9.50734      1.89943     13.15929        -0.343547     -0.027912      1.275613
O       9.57476     13.30413      0.43282         0.038703      0.327323      0.829371
O       9.38216     13.24080     13.04468         0.103312     -0.220794      0.160506
O       9.44751      1.98411      4.49442        -0.018797     -0.452997      0.804032
O       9.42928     13.28075      4.67612         0.094682     -0.339238      0.559821
O       9.38057      1.68074      8.88276         0.003843      0.352314      0.673920
O       9.43976     13.39258      8.85833        -0.144449     -0.496692      1.253644
O       9.45579      5.74320      0.21705        -0.381376      0.224544      0.688125
O       9.40371      5.46119     13.14539         0.303341      0.447745      1.154809
O       9.42824      5.58776      4.62860         0.330960      0.107771      0.228189
O       9.66821      5.61902      8.86120        -0.681375      0.345717      1.302555
O       9.36705      9.55106      0.31694        -0.205184     -0.229515      1.151971
O       9.28365      9.66676     13.07707         0.403332     -0.369084      0.725530
O       9.57397      9.47931      4.52341         0.161063      0.195313      1.661953
O       9.47829      9.39282      8.78139        -0.349536      0.380116     -0.397922
O       3.74813      1.89654      2.61600         0.216232      0.057273     -0.245147
O       3.71659      1.95961     15.35648         0.886358     -0.801099     -0.452578
O       3.70230     13.16715      2.51755         1.405805      0.351921     -0.245782
O       3.79451     13.35955     15.24594         1.101644     -0.055062     -0.348988
O      15.15071      1.78627      2.57995        -0.110259      0.234528     -0.274250
O      15.18133      2.11216     15.21197        -0.050384     -0.186565     -0.204825
O       0.08617     13.37476      2.70101         0.316298     -0.048496     -0.658754
O       0.10761     13.27314     15.28730        -0.553636     -0.082004     -0.345431
O       3.81124      1.93634      6.73573        -0.415984      0.118967     -0.320183
O       3.75128     13.32624      7.02087         0.138175     -0.612810     -0.429625
O      15.13625      1.93857      6.85780         0.021766     -0.076268     -0.336564
O      15.07152     13.29694      7.01814         1.590550     -0.766189     -0.609632
O       3.83296      1.84031     11.00965         0.237027     -0.088958     -0.101300
O       3.81549     13.34873     11.19244        -1.038705     -0.220993     -0.106900
O      15.17173      2.00525     10.81529         0.350153      0.311229      0.205671
O      15.18961     13.15066     11.21334         1.161667     -0.558255     -0.413278
O       3.76776      5.65634      2.83333        -1.659739      0.668238     -0.422561
O       3.84993      5.74623     15.47314         0.527326      0.439922     -1.371652
O      15.17851      5.69536      2.50746        -0.248553      0.122456     -0.087472
O      15.08702      5.73971     15.20979         1.016405     -0.219409     -0.098655
O       3.73517      5.63905      6.70210         0.834935      0.726465     -0.146483
O      15.10883      5.51182      6.92074        -0.702946      0.105328     -0.064781
O       3.84264      5.77141     10.89194         0.526821     -0.218668     -0.057023
O      15.18126      5.55033     10.97891        -0.053043     -0.049460      0.019213
O       3.68552      9.46284      2.59495        -0.758366     -0.361234     -0.183061
O       3.81620      9.42727     15.28385         0.208246     -0.036238     -0.387169
O      15.11711      9.52752      2.41069        -0.333987     -0.211810      0.059186
O      15.16490      9.23711     15.11082        -0.086248      1.302620      0.088637
O       3.72660      9.52008      6.95904        -0.526149     -0.510920     -0.529023
O      15.07172      9.53864      6.93618         0.012317      0.158668     -0.428337
O       3.80457      9.15289     10.87469        -0.849425      0.486449     -0.016933
O      15.13471      9.45008     11.22705         1.146710     -0.117535     -0.700341
O       7.61021      1.89365      2.43611        -0.425058      0.086190      0.103036
O       7.60181      1.88109     15.45316        -0.086962     -0.294409     -0.391701
O       7.65207     13.34202      2.62945        -1.347409     -0.359698     -0.317377
O       7.60131     13.30261     15.36263        -0.923398      0.039590     -0.806878
O       7.56679      1.95389      6.77811        -0.394842     -0.314955     -0.496961
O       7.50016     13.25774      6.97426         0.865765     -0.504426     -0.694693
O       7.57366      1.89436     11.16369        -0.001052      0.113360     -0.725691
O       7.54473     13.26427     11.02142         0.582446     -0.802242     -0.199772
O       7.60202      5.71996      2.62048        -0.195548     -0.516752     -1.102244
O       7.60576      5.57514     15.34018        -0.968195      0.367875     -0.192738
O       7.62352      5.61856      6.91022        -1.274606     -0.300848     -0.988474
O       7.66224      5.57902     11.16864        -1.369059     -0.226163     -0.473319
O       7.55308      9.56037      2.71592         0.159115     -0.006809     -0.655776
O       7.48831      9.56718     15.30892         1.063025     -0.071007     -0.225413
O       7.61672      9.57966      6.66596         0.341914      0.192067      0.100743
O       7.52126      9.63258     11.01078         0.787757      0.464658     -0.165230
O      11.44460      1.95985      2.61265         0.007611     -0.533364     -0.580081
O      11.41288      1.82188     15.30643        -0.099673     -0.457507     -0.488283
O      11.51483     13.23163      2.60007        -0.201137      0.636821     -0.225290
O      11.43268     13.25987     15.20828         0.109750      0.369155     -0.261313
O      11.25159      1.76205      6.84128         1.023944     -0.053776     -0.491708
O      11.35264     13.28370      6.90444        -0.295256      0.472483     -0.160617
O      11.35754      1.65636     11.11444        -0.008906      0.703696     -0.562520
O      11.35993     13.24379     11.05591         0.519086      0.576346      0.274119
O      11.36808      5.79441      2.33986        -0.082527     -0.066585      0.457251
O      11.35946      5.72708     15.33673        -1.328879     -0.197208     -0.287709
O      11.37526      5.72057      6.83228         0.100547      0.492663     -0.404282
O      11.30070      5.82682     11.27600        -0.106358      0.090728     -0.902996
O      11.31872      9.60221      2.40757         0.771113     -0.388309      0.086726
O      11.21301      9.61030     15.15630         1.350074     -0.152053      0.216235
O      11.39739      9.29264      6.95248        -0.243002      0.132500     -0.652100
O      11.30637      9.31359     10.99879         0.673389     -0.242022      0.104423
O       1.72950      3.74354      2.54223         0.829521      0.882399      0.226457
O       2.00889      3.90266     15.31905        -0.712329     -0.307178     -0.105454
O       2.04966     15.19190      2.26659        -0.430413     -0.598471      0.325619
O       1.68448      0.05110     15.09240         0.839394     -0.334733      0.137269
O      13.24553      3.86477      2.38105         0.199496     -0.776518      0.001084
O      13.18812      3.78333     15.26543        -0.110158     -0.793700     -0.333184
O      13.36751      0.00398      2.52939        -0.902734      1.309747     -0.075553
O      13.40503     15.18306     15.27592         0.198347      0.397598     -0.427775
O       1.90322      3.77419      6.88274         0.047408      0.057919      0.172104
O       1.96384     15.18086      6.93995        -0.555701      0.083026     -0.786524
O      13.06397      3.82085      6.60335         0.139132     -0.835139      0.259346
O      13.31771     15.17770      6.85245        -0.811944      0.195387     -0.295000
O       2.00256      3.78122     11.00292        -0.017118      0.050969     -0.445300
O       1.89514      0.05083     11.16285        -0.302002     -1.434253     -0.635919
O      13.14431      3.73405     11.11894        -0.224105     -0.579321     -0.052103
O      13.46984     15.09413     10.88968        -0.651208      0.484027      0.590754
O       1.73230      7.65822      2.53941         0.877083     -0.049663      0.722671
O       1.81201      7.56092     15.36179         0.990148     -0.156726      0.019013
O      13.25129      7.64960      2.46305        -0.053065      0.502275     -0.081053
O      13.08370      7.57657     15.21823         0.094956     -0.110551      0.064951
O       1.62635      7.60174      6.78825         0.650652     -0.516670     -0.312537
O      13.40376      7.52523      6.60553         0.132431      1.195900      0.588630
O       1.87075      7.42032     11.15242        -0.841211      1.155773     -0.793429
O      13.41658      7.48416     11.18347        -0.620336      0.301159     -0.759615
O       1.76629     11.39200      2.56787         0.343239      0.079222     -0.641743
O       1.86230     11.33199     15.07616        -0.162537      0.154388     -0.281461
O      13.30675     11.42179      2.48090         0.177998     -0.321934     -0.093771
O      13.43379     11.42074     15.27671        -0.083326     -0.718676     -0.377622
O       1.80010     11.36599      6.94503         0.198035      1.276613      0.556185
O      13.08551     11.38014      6.88259         0.590077     -1.009124     -0.171073
O       2.04608     11.21647     11.06817        -0.354030      0.447236     -0.212682
O      13.14089     11.21691     11.06962         0.757419      0.487167     -0.044538
O       5.65740      3.81126      2.55364         0.178388     -0.775693     -0.680816
O       5.84530      3.80743     15.41639        -0.958061      0.075036     -0.545023
O       5.76043      0.01039      2.60220        -0.767464     -0.505604     -0.452286
O       5.70687     15.11009     15.53809         0.034318      0.463568     -1.374359
O       5.61530      3.83381      6.72258         0.705047     -0.168631     -0.260789
O       5.59470      0.02325      6.71274         0.451790     -0.252188      0.065420
O       5.63850      3.72329     10.91652         0.252178      1.204370      0.081786
O       5.75500     15.15276     10.92919        -0.249531      0.691505     -0.033875
O       5.70633      7.55721      2.73625        -0.630689      0.601530     -0.426034
O       5.81947      7.67016     15.30667        -0.183702     -1.632618     -0.286192
O       5.60697      7.62766      6.69027         0.417218     -0.943906     -0.137352
O       6.01867      7.61131     10.73945        -0.738735     -1.482801      0.418108
O       5.56811     11.36861      2.60974         0.472306      1.101261     -0.390006
O       5.73247     11.36309     15.31349        -0.704040      1.123962     -0.615518
O       5.48997     11.42358      6.73630         0.630917      0.687659      0.393792
O       5.53490     11.30938     11.07670        -0.229967      0.940196     -0.235542
O       9.54540      3.86772      2.38612        -0.091513     -0.804858     -0.150977
O       9.58591      3.68492     15.47092        -0.779566      0.406922     -0.756170
O       9.57594     15.16538      2.63916        -0.072570      0.404723     -0.099643
O       9.41169     15.07862     15.29183         0.385788      1.389346     -0.211485
O       9.58771      3.69226      6.76685        -0.788303      0.424402      0.080271
O       9.38862     15.11695      6.69612        -0.365562      0.129618      0.129427
O       9.58308      3.75819     11.02705        -0.017525     -0.581031     -0.152906
O       9.43021     15.17487     11.18753        -0.175043     -0.417678     -0.367790
O       9.43618      7.63930      2.40360         0.030243     -0.026192     -0.062183
O       9.39299      7.59347     15.03470         0.081641      0.220201      0.355463
O       9.36642      7.51770      6.75895         0.274759      0.914577     -0.311386
O       9.26254      7.65601     10.89139         0.113997     -1.859093      0.389181
O       9.49694     11.48488      2.55775        -0.292532     -0.516599      0.168823
O       9.38166     11.50589     15.45334         0.129200     -1.132975     -0.944817
O       9.66640     11.32504      6.76344        -0.776495     -0.428444      0.124353
O       9.57800     11.36706     10.88631        -0.723882      0.261462     -0.216433
