  # total energy = -7867.27991464 
CRSYTAL
PRIMVEC
    15.010000000000000    0.0000000000000000    0.0000000000000000
     0.0000000000000000   15.010000000000000    0.0000000000000000
     0.0000000000000000    0.0000000000000000    16.400000000000000
PRESSURE
18.4609 18.2675 9.15817 0.186086 -0.018025 -0.027474
PRIMCOORD
320 1
Pb       3.58085      3.65648      3.97651         0.037145      0.399061      0.634225
Pb       3.67906      3.70182     16.33826        -0.276760     -0.296929      0.527250
Pb       3.82463     14.86662      4.11396        -0.437521      0.690329     -0.000323
Pb       3.78502     14.98156      0.06219        -0.103249      0.318234      0.110592
Pb       0.00024      3.78778      4.20638        -0.072659     -0.163652     -0.942520
Pb      14.93520      3.73338      0.12588         0.345991      0.081655      0.228008
Pb      14.94679     14.99453      4.18542         0.051263      0.078041     -0.388816
Pb       0.05133      0.01608      0.02558        -0.226423      0.007598      0.447299
Pb       3.68576      3.70806      8.16883        -0.362820      0.369779     -0.003338
Pb       3.72756      0.15067      8.21939         0.140162     -1.066054      0.196962
Pb      14.87628      3.66922      8.13461         0.249704      0.365012      0.059806
Pb      14.99476      0.07872      8.21084        -0.355907     -0.174847      0.064502
Pb       3.75018      3.65001     12.45526        -0.092073      0.202562     -0.302338
Pb       3.69986     14.98222     12.26129        -0.169045     -0.006549      0.040503
Pb      14.89597      3.78257     12.32474         0.269939      0.134200     -0.303113
Pb      14.94664      0.00390     12.32913        -0.077751     -0.246347     -0.287025
Pb       3.90214      7.53596      4.19030        -0.416404     -0.375502     -0.471904
Pb       3.76718      7.59380     16.30950        -0.986289     -0.405771      0.640875
Pb       0.10791      7.52977      4.13935        -0.420710     -0.050990     -0.142287
Pb       0.09096      7.42144      0.03602        -0.447867      0.693224     -0.296960
Pb       3.73608      7.48700      8.37009         0.076931     -0.399373     -0.670418
Pb       0.01870      7.51671      8.17427        -0.247532     -0.204350     -0.198823
Pb       3.69706      7.33093     12.39537        -0.143486      0.362539     -0.157972
Pb      14.95154      7.56282     12.31505        -0.406968     -0.221485      0.016976
Pb       3.88036     11.11996      4.04430        -0.801170      0.351980      0.497617
Pb       3.76823     11.31646      0.16335        -0.382544     -0.318019     -0.550082
Pb       0.03558     11.21550      4.16068        -0.206390      0.160693     -0.067915
Pb       0.06327     11.16471      0.07875        -0.584307     -0.067306     -0.143666
Pb       3.70046     11.30719      8.20567         0.344484      0.208164      0.555808
Pb       0.01095     11.28653      8.15689        -0.190009      0.065076     -0.121175
Pb       3.72957     11.12413     12.34682        -0.020381      0.638531     -0.422590
Pb      14.99188     11.19164     12.30128        -0.286426      0.122942     -0.066497
Pb       7.41687      3.82218      4.11188         0.187337     -0.313691     -0.368643
Pb       7.44371      3.68520      0.06969        -0.161568     -0.156052     -0.150598
Pb       7.50351     14.96323      4.06616         0.202350      0.171084     -0.314646
Pb       7.64670     14.91413      0.03074        -0.964045      0.393785      0.085745
Pb       7.43187      3.82088      8.26747         0.139765     -0.675337      0.011955
Pb       7.37838     14.94062      8.24128         0.811287      0.071311     -0.155559
Pb       7.43669      3.71860     12.39683         0.639035     -0.088313     -0.061122
Pb       7.41161      0.09231     12.22354         0.397464     -0.222922      0.356118
Pb       7.63600      7.43454      4.19125        -0.801112      0.044247     -0.715939
Pb       7.47255      7.42670     16.38729         0.013863     -0.143871     -0.134323
Pb       7.55756      7.44117      8.14144        -0.599603      0.118676     -0.050445
Pb       7.43685      7.54411     12.22063         0.251186      0.041323      0.323621
Pb       7.46878     11.12228      4.14691         0.379834      0.202611     -0.578970
Pb       7.46150     11.22972     16.38090         0.068555      0.374534     -0.165749
Pb       7.53463     11.25494      8.21638        -0.389149      0.317642      0.677708
Pb       7.46962     11.29697     12.31126         0.202237     -0.040809     -0.207558
Pb      11.35497      3.74496      4.17738        -0.232564     -0.401782     -0.586550
Pb      11.22961      3.73437      0.07410         0.008180      0.054785     -0.394185
Pb      11.18585     14.92498      4.08991        -0.067165      0.236542     -0.340182
Pb      11.37417     15.00268     16.36404        -0.021171     -0.202960     -0.098391
Pb      11.17161      3.67058      8.33713         0.722055      0.187394     -0.284746
Pb      11.20728     15.00043      8.17383        -0.091739     -0.085306      0.057988
Pb      11.17480      3.74278     12.35253        -0.222155      0.157501      0.091672
Pb      11.17136     14.81927     12.34002         0.591731      0.456331      0.052680
Pb      11.27870      7.50384      4.09469         0.075465      0.201977      0.154624
Pb      11.25657      7.43718     16.35203         0.156942     -0.027106     -0.261187
Pb      11.33610      7.49721      8.21849         0.013630     -0.317261     -0.044964
Pb      11.05812      7.55559     12.35219         0.811612     -0.318133      0.175287
Pb      11.16387     11.23120      4.10659         0.465373     -0.142052     -0.570720
Pb      11.16374     11.37580     16.39739         0.861966     -0.376801     -0.086487
Pb      11.31797     11.36554      8.14228         0.091965     -0.225268      0.253390
Pb      11.18848     11.20363     12.35633        -0.096675     -0.040827     -0.417004
Ti       1.76565      1.79402      2.21555         0.397745      0.817981     -1.321157
Ti       1.77937      1.81803     14.35893         1.756432      0.905232      0.958040
Ti       1.82437     13.09153      2.25200         0.533013      0.917701     -0.345049
Ti       1.80065     13.12179     14.49384         0.606898     -0.332844     -0.223822
Ti      13.06795      1.84822      2.08464         0.894898      0.407722     -0.163956
Ti      13.12322      1.92709     14.40604        -0.348798     -1.540457      0.680840
Ti      13.12649     13.12813      2.10402        -0.177824      0.041036     -0.230683
Ti      13.18200     13.10283     14.39161        -1.576962      0.226631      0.276851
Ti       1.89547      1.80667      6.17241        -2.042310      1.154061     -0.239768
Ti       1.89038     13.18560      6.20646        -0.135341     -1.259889     -0.761230
Ti      13.05272      1.81069      6.10372         0.615888      0.524489      0.671893
Ti      13.09936     13.18347      6.10739         0.525677     -1.164620      0.425125
Ti       1.84646      1.88244     10.28673        -0.059885     -0.656187      0.113366
Ti       1.84229     13.09653     10.28982         1.584897      0.863711     -0.409285
Ti      13.11702      1.91885     10.36964         0.180191     -1.375263     -0.485761
Ti      13.16656     13.08309     10.28974        -0.743870      0.434096      0.500837
Ti       1.81047      5.68306      2.12463         0.072386     -0.773468     -0.621515
Ti       1.73346      5.53912     14.39214         1.640740      1.371669      0.517742
Ti      13.06723      5.69310      2.11153         1.285871     -0.941770     -0.422844
Ti      13.07259      5.59792     14.33593         0.462075      1.075627      0.338665
Ti       1.83812      5.62752      6.20937        -0.267681     -0.184661     -0.330570
Ti      13.04852      5.55972      6.15193         0.617017      1.081602      1.171468
Ti       1.83707      5.57114     10.37042         0.023810      0.030998     -0.138847
Ti      13.07718      5.65744     10.32222        -0.360136      0.572053     -0.211731
Ti       1.85614      9.40731      2.15822         0.628333     -0.332972     -0.398036
Ti       1.83819      9.39402     14.31741         0.155498     -1.207471      1.573218
Ti      13.08068      9.41305      2.12714         0.926566      0.188674     -0.139722
Ti      13.10584      9.35558     14.50096         0.652507      0.027458     -0.710572
Ti       1.92300      9.41822      6.21469        -0.409458     -0.539634     -0.464759
Ti      13.14358      9.36963      6.17520         0.567474      0.409359     -0.165653
Ti       1.83361      9.30047     10.31010        -0.367159      0.863609     -0.006676
Ti      13.01776      9.41880     10.27640         0.652893     -0.497954      1.241462
Ti       5.56542      1.90479      2.20267         0.873316     -2.070796     -1.527201
Ti       5.59539      1.77614     14.46084        -0.196945      0.999246      0.321789
Ti       5.62954     13.05775      2.17785         0.252703      1.036058     -0.944363
Ti       5.55697     13.13087     14.34177         0.956320      0.008759      0.235448
Ti       5.70963      1.87235      6.21456        -0.985870     -0.595967     -0.512346
Ti       5.60981     13.11920      6.14846         0.124670      0.378927      1.377871
Ti       5.62657      1.95597     10.26324         0.622064     -0.893304      0.355557
Ti       5.61605     13.16778     10.35850        -0.407216     -1.183087     -0.607730
Ti       5.51195      5.54280      2.04461         0.413030      1.450591      0.402440
Ti       5.55321      5.61714     14.43266         0.519468     -0.811562     -0.082220
Ti       5.55478      5.55529      6.21699        -0.597023      0.792344      0.010266
Ti       5.65444      5.57145     10.31733        -1.125891      0.971714      0.058221
Ti       5.72363      9.30244      2.06307        -1.230038     -1.126590     -0.162248
Ti       5.60682      9.37731     14.40397         0.454552      0.237891     -0.207437
Ti       5.62186      9.40143      6.24605        -0.057801     -1.196156     -0.146028
Ti       5.51013      9.35654     10.27159         1.295690      1.031727      0.521387
Ti       9.40321      1.89230      2.15995        -0.916871     -0.554932      0.442077
Ti       9.36134      1.80739     14.45267        -0.483218      0.594342     -0.713155
Ti       9.39799     13.07129      2.08299        -0.289289      0.271577      0.519639
Ti       9.34607     13.12100     14.43811        -0.337073     -0.016727     -0.464329
Ti       9.35223      1.88072      6.12733         0.324079     -2.301064      0.402050
Ti       9.33715     13.02239      6.17777        -0.078768      2.630661      0.198799
Ti       9.49223      1.83142     10.38388        -2.475202      0.601096      0.839854
Ti       9.38557     13.12928     10.26113        -0.080405     -0.637573      0.413594
Ti       9.40263      5.56093      2.15018        -1.600634      0.201138     -0.439361
Ti       9.31942      5.53730     14.46720        -0.084809      0.288713     -0.428353
Ti       9.35714      5.51494      6.18257         0.668669      0.705082      0.455253
Ti       9.40862      5.58945     10.25094        -0.244848     -0.006155      0.579935
Ti       9.37694      9.27949      1.98001         0.338236      0.792254      0.553335
Ti       9.35773      9.34426     14.44238         0.637820     -0.237064     -0.361748
Ti       9.39482      9.34776      6.24882         0.169504     -0.108006      0.107826
Ti       9.30071      9.35050     10.27641         0.203810      1.050027      1.024759
O       1.82759      1.91819      0.35042        -0.361149     -0.575248      0.791312
O       1.95196      1.89023     12.57299        -0.323717      0.074249     -0.696294
O       2.04410     13.09721      0.40751        -0.551892      0.021798     -0.216649
O       1.68543     13.17665     12.71764         0.461320     -0.180533     -0.422734
O      13.21026      1.89143      0.20849        -0.420499     -0.014147      0.380599
O      13.22559      1.94009     12.64692        -0.190551     -0.049752     -1.485734
O      13.08486     13.16474      0.30849        -0.115006      0.019995     -0.713237
O      13.23746     13.06991     12.59035        -0.218541     -0.076270     -0.168758
O       1.84272      1.92191      4.36563        -0.163429     -0.048321     -0.024474
O       1.89515     13.11827      4.37813        -0.477281      0.050657      0.772905
O      13.10510      1.80087      4.31009        -0.314071      0.240777      0.532024
O      13.09829     13.32594      4.31442        -0.061103     -0.783145      0.121021
O       1.76275      1.82299      8.46865         0.165400     -0.032649     -0.239290
O       2.01707     13.14610      8.44388        -0.255046      0.024953      0.057419
O      13.09532      1.78225      8.52524        -0.176753      0.268695      0.554598
O      13.10150     13.08902      8.49133         0.078672     -0.155895     -0.524231
O       1.80648      5.70205      0.28406        -0.258139     -0.149028      0.024163
O       1.82822      5.56464     12.60758         0.217254     -0.178050     -1.138219
O      13.07084      5.57655      0.28730         0.342560      0.136786      0.046573
O      13.06683      5.68838     12.53808         0.264384     -0.315086     -0.083264
O       1.85674      5.69434      4.35793        -0.240403     -0.546178      0.595597
O      13.08709      5.57228      4.35604        -0.182335      0.219842     -0.479860
O       1.81008      5.66989      8.55994         0.215647     -0.047783     -0.481596
O      12.98450      5.53679      8.49811         0.099051      0.606679     -0.025334
O       1.88070      9.37459      0.33933        -0.075806      0.160677     -0.219874
O       1.74857      9.33869     12.55287         0.569053      0.458695     -1.057264
O      13.26213      9.44549      0.35373        -0.796793     -0.406026     -0.746831
O      13.11773      9.16724     12.65529        -0.046089      1.020022      0.109560
O       1.92346      9.43869      4.37062        -0.533934     -0.291114      0.103876
O      13.12131      9.38745      4.38358         0.175433      0.003314     -0.505896
O       1.89454      9.35953      8.47483         0.254330     -0.176074     -0.233573
O      13.16006      9.51402      8.53542        -0.119750     -0.075019     -2.055285
O       5.60958      1.88888      0.33766        -0.060167     -0.112977      0.260576
O       5.45322      1.84000     12.62687         0.400241     -0.096798     -0.558906
O       5.60171     13.07369      0.31132        -0.111490     -0.319790      0.555502
O       5.63693     13.24708     12.52826        -0.076058     -0.101136      0.499917
O       5.65221      1.74963      4.39093         0.047912      0.726745      0.511376
O       5.65699     13.07958      4.36829         0.480782      0.264520     -0.613129
O       5.68513      1.97191      8.45785        -0.078187     -0.115249     -0.337745
O       5.64425     13.08756      8.48919        -0.420986      0.065007      0.584495
O       5.55635      5.48285      0.25747         0.306426      0.560578     -0.022701
O       5.59947      5.67882     12.57342         0.225694      0.049543      0.403145
O       5.50818      5.66786      4.42683         0.257370     -0.522067     -0.647855
O       5.49626      5.57980      8.49738         0.369517     -0.334695      0.100002
O       5.66145      9.33166      0.22581         0.512363      0.541046      0.178596
O       5.49982      9.32241     12.59998         0.453183     -0.276293     -0.085256
O       5.59633      9.24641      4.36315         0.861737      0.505814      0.742210
O       5.49542      9.37201      8.44874         0.143761      0.123410     -0.115345
O       9.26779      1.99782      0.36596         0.468862     -0.474887     -0.184152
O       9.37736      1.93866     12.62136        -0.268132     -0.454456      0.487010
O       9.36021     13.08616      0.28209        -0.179854      0.087294     -0.527782
O       9.39391     13.10421     12.62151        -0.045051      0.132508     -0.128320
O       9.41872      1.76710      4.34944        -0.419626      0.518870      0.279591
O       9.45775     13.08957      4.35361        -0.694841     -0.309441      0.277794
O       9.52929      1.86044      8.63039        -0.433816      0.050454     -1.658682
O       9.42828     13.13945      8.45253        -0.331863     -0.105087     -0.044848
O       9.33317      5.57603      0.32025         0.139774     -0.070597     -0.113897
O       9.32881      5.51327     12.66732        -0.190151      0.180597     -0.345663
O       9.42967      5.63305      4.37650        -0.285825     -0.186179      0.208132
O       9.48133      5.65229      8.41622        -0.261895     -0.211393     -0.041085
O       9.36086      9.30763      0.18791        -0.194002     -0.089381      0.280477
O       9.41380      9.35153     12.60655         0.013910      0.268446     -0.209667
O       9.35230      9.47853      4.43578        -0.007318     -0.389221      0.304686
O       9.24950      9.38955      8.51263         0.551437     -0.437729     -1.393777
O       3.72176      1.75193      2.43755        -0.801897      0.033437      0.030913
O       3.67023      2.00844     14.71111         0.435326     -0.156221     -0.039436
O       3.73612     13.17069      2.52969         1.064124     -0.167138     -0.651281
O       3.74615     12.93034     14.65812        -0.535359      0.053216      0.029435
O      14.88498      1.91028      2.50972         1.359703      0.022539     -0.287830
O       0.03306      1.62035     14.67381        -2.042506      0.445371     -0.029261
O      14.97465     13.04239      2.40661         0.268295     -0.151747      0.138275
O      14.94519     13.27285     14.79586         1.349387      0.128210      0.265561
O       3.62916      1.70757      6.46148         3.162617      0.178179      0.335636
O       3.80121     13.44970      6.27334        -0.871826     -0.628754      0.801215
O      14.91850      1.99019      6.48486         0.486090     -0.210600     -0.152176
O      14.99624     12.97947      6.39409         0.509456      0.015356      0.217652
O       3.76831      1.85359     10.28776        -0.736144     -0.031758      0.914488
O       3.72476     13.26076     10.70562         0.134806     -0.156467     -0.299712
O      14.95835      1.81397     10.54437         0.285137      0.708241      0.359759
O       0.05132     13.02329     10.47381        -1.313011     -0.190468      0.256404
O       3.66332      5.87830      2.30081         0.793317     -0.820975      0.325751
O       3.70568      5.46780     14.73879         0.133393      0.275213     -0.669570
O      14.96273      5.44850      2.43967        -0.116348      0.792145     -0.099788
O      14.98622      5.80154     14.60014        -1.229139     -0.072421      0.342480
O       3.67003      5.68811      6.48699         0.254210      0.244131      0.355660
O      14.92122      5.47897      6.55038         0.786557      0.067040     -0.301981
O       3.74747      5.69117     10.67663        -0.108070     -0.307490     -0.476900
O      14.91827      5.59839     10.65694         0.648946     -0.232349     -0.250665
O       3.80782      9.42711      2.26310        -0.058405     -0.628543      0.421028
O       3.77946      9.53258     14.68527        -0.591601      0.123761      0.062349
O      15.00285      9.56694      2.32243         0.115847      0.295413      0.758133
O      15.00386      9.36528     14.72440         0.063393     -0.719176     -0.009185
O       3.77983      9.17055      6.29420        -0.167239     -0.149491      0.938799
O       0.03139      9.55066      6.52520         0.061978     -0.151583     -0.210046
O       3.71322      9.29767     10.63286        -0.208178     -0.153659      0.003459
O      15.00356      9.43263     10.59547        -0.232717      0.131605     -0.159471
O       7.50314      2.14767      2.46188        -0.074907     -0.521594     -0.045618
O       7.44266      1.61058     14.64234         0.438424      0.383459      0.061774
O       7.49725     13.09167      2.34685         0.142926     -0.357023      0.446219
O       7.47542     13.30127     14.64196         0.028253      0.042631      0.418420
O       7.51220      2.05459      6.54047         0.246898      0.081071     -0.160355
O       7.48295     12.96605      6.52571         0.291831      0.123983     -0.331909
O       7.50600      2.08294     10.59585         0.049330     -0.734727      0.088628
O       7.50713     13.03440     10.57050        -0.535913      0.348677      0.032281
O       7.44333      5.48635      2.43569         0.207744     -0.263427     -0.029622
O       7.46846      5.78546     14.69768        -0.463746     -0.267967      0.025679
O       7.46064      5.48137      6.49807         0.948544     -0.500593      0.021352
O       7.54917      5.61122     10.42857        -0.968806     -0.043128      0.398879
O       7.54402      9.33341      2.44776         0.569878      0.600367     -0.051747
O       7.56278      9.16313     14.51518        -1.779873     -0.127752      0.658015
O       7.47552      9.52438      6.61034         0.369428     -0.255571     -0.822073
O       7.46272      9.56909     10.65785        -0.782208     -1.042844     -0.295868
O      11.26825      1.83801      2.41242        -1.095925     -0.006539     -0.139664
O      11.20009      1.95414     14.64305         1.160139      0.687390      0.529719
O      11.22541     13.20668      2.36604        -0.134808     -0.073777      0.119948
O      11.20105     13.16124     14.71270         0.917539     -0.922949      0.016135
O      11.24560      1.59992      6.43757        -0.280140      0.406060      0.007564
O      11.22543     13.20648      6.47698         0.435570      0.200480     -0.136812
O      11.26126      1.83970     10.68549         1.155795     -0.671701      0.416219
O      11.23148     13.18676     10.57410         0.403938     -0.163275      0.148020
O      11.21232      5.79855      2.21302         1.015959     -0.072430      0.810433
O      11.27027      5.52565     14.65661        -1.045605     -0.832573      0.575439
O      11.21976      5.78744      6.39353        -0.299918      0.205689      0.196121
O      11.16938      5.70603     10.65901         1.588584     -0.034945     -0.070211
O      11.23892      9.27401      2.44233        -0.709126     -0.198510     -0.183642
O      11.28255      9.53819     14.73721        -0.551750     -0.315818      0.093134
O      11.30563      9.23722      6.46914        -1.562971      0.222461      0.284923
O      11.17842      9.36402     10.58622         0.325903      0.254671     -0.029027
O       1.83495      3.73151      2.33375         0.663854      0.340352      0.598452
O       1.68629      3.76103     14.71442        -0.227466     -1.599558     -0.034920
O       1.71635     14.99670      2.57952         0.347118     -0.425907     -0.653055
O       1.92770      0.01803     14.83758         0.724510     -1.385757     -0.272370
O      13.05119      3.75365      2.35763        -0.635397      0.289921      0.122928
O      13.34410      3.75508     14.64344        -0.033504      0.113742      0.118760
O      13.08747     14.99961      2.25923         0.345054      0.519886      0.313736
O      12.91063     15.00750     14.53173         0.567585      0.369327      0.522865
O       1.97277      3.68586      6.48525        -0.457831      1.110678     -0.017553
O       1.70546     14.98687      6.46127        -0.474637      0.338386      0.234876
O      12.97695      3.74071      6.51829        -0.475536     -1.079981     -0.364924
O      13.30548     14.97983      6.47195        -0.208885      0.443880      0.165794
O       1.85897      3.71342     10.56775         0.051497      0.269214      0.239114
O       1.79898      0.01128     10.63916         0.135352     -0.154595     -0.077808
O      12.91605      3.76650     10.57398         0.740563     -0.526824      0.115760
O      13.18170     14.89154     10.69920        -0.157077      1.446668     -0.196114
O       1.70957      7.54897      2.34857        -0.294118      0.087533      0.335118
O       1.95492      7.50858     14.49472         0.386420      0.006774      0.845095
O      13.29497      7.54116      2.36717        -0.231218     -0.588547      0.281791
O      13.01544      7.45638     14.71312         0.013485      0.566633      0.482621
O       1.67860      7.51135      6.35089        -0.012952     -0.272912      0.612157
O      13.26694      7.51545      6.36390         0.070742     -0.714742      0.771189
O       1.85632      7.46703     10.59069        -0.229475      0.137965      0.053154
O      13.14110      7.57487     10.39804        -0.060311     -1.394373      0.207980
O       2.00101     11.29625      2.53144        -0.382329     -0.938367     -0.418314
O       1.70259     11.18485     14.70640         0.336898      2.118318      0.018183
O      12.92314     11.29197      2.34264         0.193685     -0.584511      0.610654
O      13.24037     11.27887     14.75425        -0.236465     -0.310818     -0.287568
O       2.12274     11.26247      6.46332        -0.211984      0.351646      0.163062
O      13.10951     11.27426      6.34099        -0.766924      0.228974      0.436830
O       2.00063     11.27324     10.56456        -0.033312     -0.850977      0.193530
O      13.00544     11.22823     10.68849         0.381074      0.796320      0.188121
O       5.37379      3.71304      2.36828         0.161469      1.233688      0.653452
O       5.75261      3.69142     14.66944        -0.038033      0.710483     -0.302930
O       5.67868     14.99746      2.38214         0.284168     -0.550543      0.168054
O       5.48660     14.98104     14.72901        -0.678082     -0.874918      0.175115
O       5.48269      3.69862      6.52723        -0.208764      0.045267     -0.138114
O       5.72974      0.00866      6.56637         0.497163      0.261162     -0.165162
O       5.62136      3.75985     10.71070        -0.468928      0.484695     -0.144833
O       5.69639      0.03013     10.48588         0.131474      0.646904      0.176377
O       5.76680      7.44737      2.30098        -0.344051      0.033220      0.069222
O       5.49705      7.47716     14.77690         0.188581      0.211130     -0.520475
O       5.75958      7.39302      6.45850         0.029947      1.638001      0.388130
O       5.68704      7.51869     10.44689         0.110889     -0.448771      0.347534
O       5.65929     11.16460      2.48423         0.269412      0.816653     -0.469517
O       5.96696     11.26726     14.57298        -0.851066     -0.499656      0.069541
O       5.46490     11.27885      6.45977        -0.146049     -0.874319     -0.199248
O       5.44627     11.27693     10.74510         0.295748     -0.421697     -0.615407
O       9.56817      3.77342      2.59481        -0.190507     -0.389718     -0.469289
O       9.13856      3.67152     14.78348         0.342052      0.523807     -0.226916
O       9.31505     14.98089      2.39212        -0.364785      0.865691     -0.195876
O       9.45770     14.99814     14.81456         0.032055      0.040370      0.020735
O       9.63264      3.65536      6.48830        -0.348405      1.598521     -0.068634
O       9.19039     15.00907      6.50503         0.054347     -0.423417     -0.112212
O       9.49902      3.75386     10.71395        -0.248908      0.337198     -0.890562
O       9.28048     15.00468     10.68331         0.030057     -0.210555     -0.183909
O       9.33694      7.46188      2.40356        -0.375921      0.196927      0.244174
O       9.50883      7.42809     14.59021         0.447701      0.503794      0.601127
O       9.19225      7.48299      6.35433         0.031498      0.055762      0.381015
O       9.47528      7.50420     10.62231        -1.581497     -0.243697     -0.382915
O       9.46970     11.20297      2.24605        -0.230252     -0.561897      0.449089
O       9.27564     11.23839     14.66287        -0.242651      0.215286      0.348255
O       9.50535     11.25126      6.51888        -0.113027     -1.002413     -0.007565
O       9.37776     11.27537     10.56307         0.500063     -0.311081      0.172766
