  # total energy = -7877.79190878 
CRSYTAL
PRIMVEC
    15.6000000000000000    0.0000000000000000    0.0000000000000000
     0.0000000000000000   15.6000000000000000    0.0000000000000000
     0.0000000000000000    0.0000000000000000    17.640000000000000
PRESSURE
-6.20548 -5.7382 -8.85456 0.099956 -0.284098 0.024338
PRIMCOORD
320 1
Pb       3.94352      3.89858      4.30577         0.029678      0.439632     -0.082607
Pb       3.87367      3.74680     17.58302        -0.260133      0.288377      0.005854
Pb       3.92537      0.02770      4.43337         0.198637     -0.346306     -0.354897
Pb       3.96592      0.01808     17.55640        -0.441914     -0.481473      0.207930
Pb      15.54646      3.84127      4.31370         0.088840      0.234725     -0.101348
Pb      15.58000      3.75698     17.52867        -0.325216      0.620622      0.090051
Pb       0.01028      0.03659      4.35207         0.054326     -0.360618     -0.430913
Pb       0.09070     15.55639      0.02858         0.322493      0.077112     -0.329379
Pb       3.89364      3.84187      8.76477        -0.350131      0.704340     -0.229625
Pb       3.86894      0.02017      8.78806         0.221503     -0.349715     -0.321904
Pb       0.05106      3.82008      8.79315        -0.236772      0.277105     -0.500032
Pb       0.02257      0.08425      8.86976        -0.269573     -0.672117     -0.438247
Pb       3.78901      4.01250     13.14254         0.337724      0.345520     -0.216717
Pb       3.93856      0.08627     13.20375         0.068070     -0.073581      0.152547
Pb      15.58904      3.85240     13.25486        -0.503876      0.458777      0.080215
Pb      15.56403     15.57813     13.21378        -0.117219     -0.175163     -0.379479
Pb       3.87439      7.79903      4.22342         0.428063     -0.362610      0.311291
Pb       3.83975      7.79158     17.59387        -0.046804     -0.293251     -0.571483
Pb      15.54396      7.64022      4.41294        -0.554213     -0.086948     -0.363532
Pb      15.49583      7.77616     17.62360         0.432700     -0.452936     -0.331136
Pb       3.81193      7.76092      8.77362        -0.651519     -0.302346     -0.148060
Pb       0.06023      7.84400      8.66718         0.041122     -0.286962      0.054246
Pb       3.87560      7.88678     13.19683         0.357977     -0.866031     -0.558955
Pb      15.50416      7.79871     13.18378         0.021028     -0.513623     -0.024650
Pb       3.90314     11.59867      4.32320         0.317448      0.020612     -0.123836
Pb       3.86821     11.65167     17.54709        -0.096412      0.198119      0.237714
Pb       0.06061     11.67165      4.44648        -0.522551     -0.260223     -0.691952
Pb       0.02464     11.57685      0.05408         0.206142      0.357642     -0.111999
Pb       3.88765     11.73279      8.74487         0.077655      0.082871     -0.323761
Pb       0.03130     11.52560      8.76200        -0.304434      0.696587      0.161437
Pb       3.94991     11.53610     13.21490        -0.731838      0.535658      0.027220
Pb       0.08449     11.64750     13.25720        -0.081357      0.393905     -0.607023
Pb       7.77460      3.93419      4.30451         0.116327      0.125462     -0.244882
Pb       7.85199      3.84358     17.60113         0.344237     -0.041792     -0.313315
Pb       7.91023     15.59873      4.39207        -0.560886     -0.206499     -0.108324
Pb       7.80273     15.47876     17.60362         0.188827      0.294429     -0.065207
Pb       7.93854      3.89938      8.74685        -0.365382     -0.036248     -0.349331
Pb       7.73395      0.01098      8.72543        -0.076418     -0.283724     -0.390253
Pb       7.61845      3.80688     13.17607         0.314835      0.483921     -0.338058
Pb       7.76705     15.57107     13.14723        -0.431045     -0.227232     -0.139803
Pb       7.68560      7.77020      4.33721         0.240986     -0.265183     -0.195723
Pb       7.78687      7.74576     17.51793         0.281912     -0.134135     -0.444767
Pb       7.84357      7.82693      8.78385         0.056106     -0.150166     -0.215621
Pb       7.86976      7.67067     13.22971        -0.461117      0.056377     -0.154058
Pb       7.70268     11.60509      4.31629        -0.056484      0.106517      0.409465
Pb       7.78628     11.67196     17.54739        -0.202973      0.309989     -0.215124
Pb       7.76399     11.61765      8.71416         0.031110      0.778236     -0.387159
Pb       7.74958     11.56715     13.21816         0.336808      0.333028     -0.131446
Pb      11.68166      3.85964      4.29358        -0.089730     -0.055396     -0.036763
Pb      11.59198      3.88370     17.54417         0.458872      0.144790     -0.422196
Pb      11.78618      0.05942      4.35172         0.016624     -0.362948     -0.627450
Pb      11.82809      0.05190     17.55597        -0.742488     -0.252357      0.285586
Pb      11.71351      3.89377      8.78713         0.258617     -0.210479     -0.145601
Pb      11.55592     15.58938      8.81443         0.279630     -0.355731     -0.195250
Pb      11.63203      3.82332     13.21121         0.060928      0.715701     -0.124287
Pb      11.71854      0.07897     13.24732        -0.284956     -0.226606     -0.326460
Pb      11.63041      7.84862      4.41323         0.238201     -0.296636     -0.305411
Pb      11.81531      7.86307      0.00240        -0.649481     -0.330367     -0.002127
Pb      11.78691      7.79151      8.79528         0.136762     -0.158924     -0.513090
Pb      11.66625      7.86617     13.19742        -0.018338     -0.374851     -0.170239
Pb      11.70345     11.68365      4.55109         0.231412      0.051730     -0.498294
Pb      11.57537     11.75038      0.12368         0.134365      0.754354     -0.543522
Pb      11.56197     11.75481      8.88209         0.224529      0.423108     -0.801742
Pb      11.77372     11.67949     13.34731        -0.247923     -0.075102     -0.813074
Ti       1.92584      1.94904      2.42595        -0.390380     -0.679263     -1.836435
Ti       1.88360      1.90336     15.60539         0.043682     -0.656713     -0.381762
Ti       1.87816     13.59228      2.28046         0.234777      0.202255     -0.633039
Ti       1.93184     13.59468     15.66875        -0.029468      0.053761     -0.244049
Ti      13.65443      1.92497      2.31140        -0.515297     -0.600761      0.545838
Ti      13.63404      1.90791     15.57937        -0.119713      1.987761     -1.187470
Ti      13.60262     13.54188      2.32207        -0.689904      0.540755      0.118325
Ti      13.59245     13.66315     15.55809         0.737832     -0.000546     -0.572331
Ti       1.89326      1.87246      6.75320        -0.516028      0.222581     -0.808794
Ti       1.90544     13.61164      6.71573        -0.383343      0.774940      0.461781
Ti      13.60545      1.87149      6.70793        -0.253956      0.635184     -1.009191
Ti      13.64360     13.69656      6.81425        -0.503883     -0.839718      0.426218
Ti       1.87899      1.95019     11.22512         0.193462      0.363005     -1.790380
Ti       1.89450     13.70262     11.23749        -0.683442     -0.884450     -1.387374
Ti      13.59518      1.96766     11.25966        -0.190959      0.687773     -0.975255
Ti      13.51101     13.70762     11.27751         1.282281     -0.509600     -2.567357
Ti       1.98041      5.78995      2.33743         0.227813     -0.347656     -0.272040
Ti       1.94362      5.75809     15.59252        -0.860276      0.779254     -1.346691
Ti      13.61141      5.73062      2.34842         0.472639      1.240372     -0.479621
Ti      13.59104      5.91256     15.66054         1.221069     -1.947226     -1.782291
Ti       1.86796      5.79559      6.68260         0.700148      0.275503      0.967612
Ti      13.59619      5.78379      6.76175         0.747818      0.672732     -0.442105
Ti       1.84096      5.84558     11.20275         0.846346      1.446787     -2.116998
Ti      13.63665      5.88311     11.11819        -0.996469     -0.679370     -1.144756
Ti       1.91419      9.66453      2.36027        -0.173882      0.526210     -1.179601
Ti       1.84644      9.71233     15.57426         0.193238     -0.131456      0.612278
Ti      13.58260      9.71967      2.34527         0.671461     -0.737553      0.253305
Ti      13.59088      9.87669     15.68434         0.111198     -1.308867     -1.375422
Ti       1.96095      9.78826      6.65513        -0.057613     -1.135251      0.520453
Ti      13.55301      9.79846      6.87585         0.510438     -0.311711     -1.078010
Ti       1.88927      9.77136     11.26220         0.462229     -1.234850     -2.086333
Ti      13.59154      9.79398     11.13526         0.748106      0.677956     -1.140299
Ti       5.81769      1.88909      2.37419         0.379395     -0.182459     -1.061572
Ti       5.79415      1.98524     15.65642         0.277503     -1.841483     -1.426179
Ti       5.74564     13.58922      2.39895         0.053847      0.200344     -1.187371
Ti       5.81864     13.60592     15.61722        -0.291340      0.731297     -0.107818
Ti       5.71494      2.05261      6.76277         1.342534     -1.448215     -0.980292
Ti       5.77653     13.65895      6.82364         0.592545     -0.080976     -1.527852
Ti       5.81641      2.00603     11.15958        -0.388574     -0.867208     -0.664866
Ti       5.64905     13.60683     11.26569         1.157999      1.110527     -1.804020
Ti       5.87607      5.80078      2.18166        -0.445965      0.392758     -0.207882
Ti       5.81738      5.81073     15.63949        -0.025052      0.785841     -2.054084
Ti       5.88459      5.90636      6.74326        -1.109887     -0.424547     -0.776569
Ti       5.83149      5.91168     11.09261        -0.716350      0.396318     -0.405487
Ti       5.84103      9.67616      2.28810        -0.328118      0.385288      0.051977
Ti       5.77592      9.77196     15.51951         0.925313     -1.202749     -0.765146
Ti       5.78154      9.65656      6.81814        -0.267800      1.637873     -1.713835
Ti       5.86605      9.82170     11.14021        -0.925611     -1.421921     -1.027779
Ti       9.70682      1.91880      2.38122        -0.076466     -0.622669     -1.508496
Ti       9.72303      1.92355     15.57169         0.040760      0.397245     -0.706660
Ti       9.62225     13.54985      2.42057         0.793772      0.641543     -1.834063
Ti       9.73363     13.68899     15.50470        -0.068383      0.044870     -0.338884
Ti       9.74484      1.91900      6.68776        -0.477855      0.138201     -1.016702
Ti       9.69013     13.69339      6.66496         0.244723     -1.062947      0.814603
Ti       9.71479      1.90702     11.17420         0.142074      0.176122     -1.134599
Ti       9.60481     13.67068     11.18317        -0.013750     -0.113231     -1.302386
Ti       9.81855      5.82724      2.30214        -0.574564      0.482688     -1.794226
Ti       9.78518      5.88593     15.55304        -0.054803     -0.613222     -1.065404
Ti       9.72936      5.79850      6.79622         0.098449      0.521483     -2.068015
Ti       9.68616      5.80513     11.15296         0.964078     -0.284556     -0.981788
Ti       9.73137      9.68378      2.29769        -0.143982     -0.468705     -1.025159
Ti       9.75970      9.76623     15.62301        -0.510333     -0.461771     -1.920870
Ti       9.69802      9.71879      6.81186         0.115136      0.515857     -0.300918
Ti       9.72384      9.78899     11.20347         0.147583      0.155659     -1.246036
O       1.77992      1.95811      0.57656         0.748036      0.098240      1.118784
O       1.82843      1.94746     13.83978         0.124848     -0.025540     -0.590905
O       1.90851     13.54802      0.47101        -0.206450      0.242929      0.837823
O       1.92684     13.41852     13.91239        -0.360743      0.338275      0.070585
O      13.56468      1.93495      0.55410         0.158033     -0.109935      0.005248
O      13.56280      1.99643     13.71344         0.223662     -0.330771      1.370795
O      13.40326     13.54630      0.54906         0.419312      0.030817      0.538166
O      13.64608     13.71717     13.72122        -0.293955     -0.376191      1.692857
O       1.89623      1.70038      4.90960        -0.074165      0.547407      1.231968
O       1.75139     13.86556      4.96224         0.308690     -0.706849      0.303657
O      13.51500      1.86347      4.85532         0.392782      0.134112      1.325755
O      13.57169     13.56393      5.05049         0.295003      0.143602     -0.004913
O       1.78058      2.05365      9.29111         0.245997     -0.296646      2.308358
O       1.98279     13.54754      9.44973         0.147813      0.494921      1.144392
O      13.54927      2.08437      9.45019         0.344952     -0.616124      1.089502
O      13.50072     13.77015      9.42716        -0.152395      0.202568      0.989587
O       2.09224      5.73597      0.59342        -0.222562     -0.035194     -0.454854
O       1.90966      5.84931     13.75240         0.016569     -0.511362      1.049087
O      13.62999      5.74906      0.59182        -0.153942      0.001114     -0.388235
O      13.81744      5.80530     13.85562        -0.492939      0.641687      0.736208
O       1.88205      5.80542      4.94968        -0.145433      0.193851     -0.872815
O      13.67413      6.00961      4.92328        -0.175393     -0.555946      1.160231
O       1.87272      5.98957      9.30868         0.083608     -0.617825      1.468670
O      13.55861      5.85131      9.26712         0.046822     -0.039198      1.648154
O       1.86947      9.68870      0.52645         0.095770     -0.067502      1.567441
O       1.76650      9.91232     13.80582         0.478449     -0.575609      0.321497
O      13.69841      9.70981      0.53411        -0.571095      0.160846      0.746472
O      13.47724      9.75017     13.83240         0.628065      0.452400      1.436754
O       2.08095      9.81386      4.87414        -0.490161      0.039645      0.097261
O      13.56411      9.81384      5.04691        -0.228811     -0.161826      0.662030
O       1.76738      9.54460      9.41244         0.648948      0.884066      1.477999
O      13.77262      9.74423      9.25986        -0.758466     -0.140107      2.239919
O       5.77969      1.95968      0.53195        -0.110247     -0.034591      1.085263
O       5.70094      1.74393     13.83198         0.584949      0.869905      0.987820
O       5.78288     13.52948      0.58198         0.154422      0.046010      0.755704
O       5.85277     13.70660     13.87444        -0.136069     -0.158935     -0.227594
O       5.78591      1.90414      4.95340        -0.242971      0.558805      0.856947
O       5.77528     13.71255      5.03482         0.011423     -0.140995     -0.157348
O       5.78907      1.83760      9.38098        -0.080254      0.384663      0.444937
O       5.74051     13.60880      9.40558        -0.469295     -0.015233      1.413379
O       5.84502      5.82979      0.36009        -0.224668     -0.302331      0.764284
O       5.73979      5.84813     13.76942         0.396340     -0.363511      1.061673
O       5.83510      5.99252      4.92701         0.385294     -0.547437      1.185288
O       5.87915      5.95439      9.28224         0.085002     -0.045745      0.982918
O       5.77673      9.84497      0.55003         0.176889     -0.373590     -0.471371
O       5.90157      9.69389     13.69052        -0.382430      0.495553      1.375170
O       5.66924      9.74810      4.95609         0.426816     -0.288571      1.097717
O       5.79608      9.80578      9.29095         0.254981      0.007001      1.244256
O       9.50560      1.86947      0.56488         0.920094      0.329779      0.730087
O       9.81165      1.89765     13.75811        -0.406586      0.106553      0.832203
O       9.65428     13.49968      0.45009        -0.058269     -0.142699      2.091343
O       9.71282     13.82937     13.72157        -0.008134     -0.439090      0.579716
O       9.69052      1.92992      4.82504         0.328133      0.196599      1.328096
O       9.59599     13.62211      4.89424         0.132807      0.032448     -0.324715
O       9.79808      1.81123      9.36212        -0.483538      0.556962      0.584702
O       9.62872     13.75180      9.32232         0.355058     -0.246541      2.011247
O       9.71481      5.83041      0.41943         0.183986      0.023967      1.702708
O       9.89616      5.82015     13.73078        -0.881494      0.267213      0.745507
O       9.74449      5.82489      4.93472        -0.063733     -0.157293      0.915639
O       9.58484      5.75158      9.26449         0.081176      0.365328      1.378571
O       9.76672      9.51541      0.43717        -0.124943      1.112068      1.281962
O       9.76187      9.73775     13.73000         0.034415     -0.241395      1.123067
O       9.58961      9.80207      5.05170         0.576389     -0.138160     -0.065891
O       9.78950      9.76881      9.33381        -0.371087     -0.367575      1.960995
O       3.95352      1.93408      2.82605        -0.403813      0.030586     -0.295506
O       3.79177      1.85185     16.01741         0.600979      0.443814      0.197822
O       3.75953     13.61537      2.70465         0.660653     -0.002742      0.268003
O       3.84964     13.63490     15.99195         0.094068     -0.485978      0.132932
O      15.56014      2.00849      2.67553         0.019019      0.009213      0.482546
O      15.56624      1.84323     16.08553        -0.822917      0.008730     -0.359782
O      15.55897     13.65504      2.59725        -0.654572     -0.324247      0.359498
O      15.46922     13.68554     15.95407        -0.109091     -0.276442      0.234295
O       3.77950      1.97460      7.16634         0.550905     -0.222528      0.027866
O       3.86257     13.58127      7.07467        -0.986996      0.513343      0.574439
O      15.53743      1.90020      7.17692         0.194608      0.076973     -0.172761
O       0.02503     13.66414      7.22057        -0.532756     -0.088218     -0.151860
O       3.80677      2.03828     11.49499        -0.137469     -0.070864      0.242348
O       3.77783     13.72632     11.69614         0.781648     -0.650699     -0.004801
O      15.55117      1.97034     11.65710         0.286549     -0.228711     -0.321971
O      15.54655     13.76444     11.49130         1.180018     -0.098043      0.822955
O       3.94113      5.77921      2.73638        -0.059634     -0.188252      0.020882
O       3.85227      5.80707     15.82530        -0.505161     -0.324073      0.949149
O      15.59244      5.85071      2.73519         0.440815     -0.301561      0.290666
O       0.03901      5.83468     16.03547        -0.377035     -0.066483      0.406971
O       3.89302      5.83698      7.09077        -0.098543      0.167443      0.249563
O      15.50727      5.84551      7.11374         0.520258     -0.108523     -0.311492
O       3.90097      5.72681     11.46484         0.193037      0.299472      0.231423
O      15.54212      5.97183     11.50207        -0.551798     -0.074165      0.115788
O       3.86957      9.78868      2.68009        -0.449778     -0.074631      0.069716
O       3.87404      9.81671     15.92685        -0.272972     -0.647379     -0.243645
O      15.51498      9.78956      2.78813         0.464519     -0.692450     -0.043414
O      15.57260      9.83588     16.10281        -0.566082     -0.731383     -0.561577
O       3.88807      9.63250      7.21649        -0.160647      0.671568     -0.120539
O       0.03835      9.79449      7.15798         0.032491      0.058658     -0.571103
O       3.90686      9.74304     11.60607        -0.097851      0.195396      0.160875
O       0.06468      9.71203     11.66091        -1.726637      0.025071     -0.027757
O       7.80552      1.98394      2.68142        -0.892231      0.074534      0.671204
O       7.78886      1.90559     16.04466        -0.569711      0.166782     -0.559634
O       7.65620     13.60039      2.75699         1.135053      0.041491      0.012585
O       7.79096     13.58848     15.98557        -0.092737      0.195867     -0.005778
O       7.77027      1.93328      6.97514         0.232057      0.105547      0.614503
O       7.79291     13.65489      7.15425         0.009997      0.119705      0.160376
O       7.72216      1.88692     11.58831         0.204524      0.210204      0.080189
O       7.68433     13.59208     11.58541         0.846081      0.388861      0.127868
O       7.75405      5.91085      2.65494         0.484418     -0.100079      0.134804
O       7.75452      5.76978     15.88593         0.056883      0.055432      0.121410
O       7.80272      5.64715      7.06658        -0.714113      0.520135      0.293106
O       7.70274      5.91239     11.55666         0.691728     -0.615115      0.181415
O       7.75122      9.60756      2.71105         0.392474      0.221365     -0.078332
O       7.76205      9.69554     15.87844         0.130028      0.164062      0.421759
O       7.74416      9.79128      7.16641         0.097126     -0.134027      0.329799
O       7.72873      9.84126     11.47529         1.091112     -0.087028      0.131405
O      11.65380      1.94687      2.69700         0.023127      0.016705      0.108122
O      11.73641      2.04839     15.97790        -1.016745     -0.711822      0.149415
O      11.62564     13.66944      2.68159        -0.193013     -0.607442      0.374707
O      11.64766     13.65538     15.98161         0.144566     -0.214794     -0.218725
O      11.71182      1.94887      7.12175        -0.717872     -0.069233     -0.073983
O      11.62567     13.56096      7.07707         0.560947      0.733283      0.269759
O      11.57524      2.02631     11.55227         0.920575     -0.572791      0.325910
O      11.72168     13.60678     11.64445        -1.861363      0.189316      0.190845
O      11.73191      5.75481      2.70450        -0.897887      0.203376      0.201714
O      11.69545      5.81071     15.84702        -0.352136      0.203207      0.725296
O      11.61584      5.82145      7.14267         0.909394      0.199042      0.148841
O      11.65479      5.85799     11.45891         0.011779      0.017434     -0.038366
O      11.61609      9.75571      2.82394         0.085409     -0.041887     -0.377342
O      11.73061      9.72169     16.05039        -0.969347     -0.121141      0.095529
O      11.65984      9.66152      7.25870        -0.128888      0.223483     -0.269649
O      11.71082      9.83413     11.71573        -0.423774     -0.174526     -0.982964
O       2.05275      3.83754      2.79216        -0.543223      0.339485      0.297875
O       1.76543      3.76457     15.92416         0.826972      1.240550      0.257822
O       1.81623      0.06205      2.63987         0.292187     -0.845215      0.213971
O       1.88789     15.55999     15.98854        -0.147045     -0.577747      0.275602
O      13.65090      3.84418      2.80789        -0.135427     -0.055615      0.029059
O      13.57493      3.90362     15.95265         0.651719     -0.559360      0.474168
O      13.60602     15.56916      2.74770         0.019671     -0.035308     -0.249009
O      13.53828      0.06925     15.93347         0.034242     -1.454443      0.026382
O       1.88647      3.88127      7.01213        -0.165315     -0.230498      0.357411
O       1.88348      0.00785      7.29640         0.389008     -0.173752     -0.242929
O      13.64495      3.82599      7.07668        -0.267185      0.860739     -0.069172
O      13.59348      0.01550      7.11171         0.129553     -0.313618      0.136811
O       1.79552      4.00524     11.60013         0.185573     -1.610470      0.048358
O       1.96044      0.05182     11.57927        -0.406356      0.413236     -0.146750
O      13.57289      3.92233     11.55352         0.438591      0.353853      0.151770
O      13.60499      0.02589     11.70366        -0.162994      0.946828     -0.168862
O       2.11658      7.68402      2.55960        -0.846476      1.448925      0.553930
O       1.82537      7.74633     15.87764         0.630732      0.938380      0.407961
O      13.56121      7.71689      2.58951         0.076932      1.118585      0.634884
O      13.59463      7.75030     16.06265         0.500392      1.083640      0.175952
O       1.91290      7.87566      6.97059        -0.165285     -0.746988      0.257376
O      13.65383      7.82305      7.17824        -0.496666     -0.559075     -0.002225
O       2.04255      7.72057     11.57441        -0.195068      0.802901      0.749754
O      13.52849      7.86796     11.58547         0.432754     -0.117116     -0.271740
O       1.81580     11.65945      2.72112         0.276019      0.164214      0.040034
O       1.86580     11.60481     16.13737         0.059549      0.653172     -0.373789
O      13.51503     11.60416      2.83616         0.321343      0.944391     -0.422374
O      13.54200     11.66827     16.06048         0.089375      1.171942     -0.448461
O       1.95522     11.70324      7.14264         0.101163     -0.180466     -0.360399
O      13.61148     11.67531      7.22301         0.029216      0.487303      0.124674
O       1.97529     11.62400     11.62858        -0.293980      0.966479     -0.003858
O      13.68138     11.75556     11.41626         0.001453     -1.598259      0.706491
O       5.86713      3.95288      2.70614         0.014086     -0.926334      0.091415
O       5.68973      3.79971     15.87186         0.365060      0.509686      0.366435
O       5.81709     15.54053      2.73197        -0.073907      0.743800     -0.115701
O       5.70780     15.54992     16.05154         0.827591     -0.038650      0.085317
O       5.72951      3.88077      7.23574         0.331689     -0.036825     -0.406757
O       5.75778     15.58732      7.10743        -0.242881      0.932117      0.819406
O       5.84003      3.88124     11.48604         0.331206      0.054334      0.232778
O       5.75473     15.55467     11.62124        -0.075092      0.334924      0.045769
O       5.72580      7.74731      2.55018         0.123332      0.325054      0.292756
O       5.78355      7.72114     15.89196        -0.118582      1.002349      0.484504
O       5.90510      7.79494      7.00513         0.358733     -0.344481      0.720860
O       5.85975      7.88704     11.55535        -0.282153     -0.593261     -0.253386
O       5.88486     11.62530      2.77087        -0.594720      0.330431      0.091445
O       5.82501     11.64659     15.92491         0.084472      0.192126      0.031958
O       5.79743     11.75317      7.05072         0.007739     -1.172526      0.843371
O       5.76582     11.73835     11.71269        -0.053070     -0.481743     -0.334933
O       9.79106      3.96921      2.55684        -0.493225     -0.811871      0.708500
O       9.71990      3.89615     15.84926        -0.034838     -0.522532      0.725228
O       9.67602     15.53805      2.69978        -0.243734      0.122533      0.154338
O       9.75993      0.02666     15.89405        -0.094524     -0.404710      0.405370
O       9.75406      3.86943      7.14840         0.039253     -0.829796      0.023487
O       9.75877     15.59410      7.06014        -0.094703      0.614836     -0.007574
O       9.70310      3.88770     11.51298        -0.668641      0.123472      0.139525
O       9.74678     15.58686     11.41192        -0.208065     -0.236319      0.773530
O       9.81549      7.79764      2.63257        -0.084535     -0.289698      0.607687
O       9.69592      7.75358     15.90655         0.102959      0.385461      0.002144
O       9.64386      7.79118      6.97212        -0.142626     -0.398894      0.975266
O       9.69028      7.70984     11.57627        -0.020937      1.280818     -0.212339
O       9.63937     11.63064      2.73400        -0.003120      0.141702     -0.300052
O       9.72531     11.65627     15.64142         0.159789      0.294013      1.060033
O       9.85309     11.73445      7.21691        -0.938541     -0.597285     -0.166646
O       9.69809     11.69711     11.45854         0.113769     -0.201357      0.321964
