  # total energy = -7880.44571119 
CRSYTAL
PRIMVEC
    15.3600000000000000    0.0000000000000000    0.0000000000000000
     0.0000000000000000   15.3600000000000000    0.0000000000000000
     0.0000000000000000    0.0000000000000000    17.440000000000000
PRESSURE
0.918623 0.981063 -4.46356 -0.372671 -0.319742 0.001036
PRIMCOORD
320 1
Pb       3.85466      3.84202      4.27009        -0.233822     -0.368442     -0.151425
Pb       3.76462      3.88972     17.38908         0.060942      0.306912      0.083936
Pb       3.88038     15.35049      4.26025        -0.391242     -0.117635      0.099332
Pb       3.95464     15.33233      0.02668        -0.727397      0.331235     -0.011356
Pb      15.29938      3.91463      4.31214         0.025213     -0.355341      0.043514
Pb      15.21815      3.71607     17.35036         0.280820      0.872349      0.554995
Pb      15.29327     15.35916      4.38850        -0.168179     -0.113579     -0.177137
Pb       0.16616      0.04692     17.37671        -0.598315     -0.664380      0.481785
Pb       3.97617      3.87506      8.60452        -0.495589     -0.043273      0.440557
Pb       3.80083     15.28685      8.67697         0.132385      0.146856      0.214739
Pb       0.15951      3.73236      8.70130        -0.243368      0.296517     -0.288705
Pb       0.13560     15.28980      8.61796        -0.750595      0.193147     -0.082879
Pb       3.91591      3.93786     13.09832        -0.647452     -0.307327     -0.257981
Pb       4.01875      0.04276     13.20314        -0.466621     -0.356534     -0.378115
Pb      15.28267      3.89006     12.94386         0.105849     -0.134260      0.448275
Pb      15.31845      0.00040     13.03917         0.016952     -0.069129      0.189826
Pb       3.77534      7.64934      4.34682         0.443965      0.090563      0.027745
Pb       3.88785      7.76702     17.42855        -0.415799     -0.211322     -0.076760
Pb      15.18485      7.51001      4.31252         0.053140      0.149666      0.125517
Pb       0.19945      7.61038     17.43511        -0.538268      0.142065      0.358449
Pb       3.76101      7.64195      8.63642         0.173094     -0.214193      0.065422
Pb      15.29953      7.72848      8.63459         0.329994     -0.152629      0.240603
Pb       3.86553      7.79273     13.09008        -0.508075      0.157523     -0.271000
Pb      15.27273      7.74059     12.93995         0.321228     -0.402121      0.105030
Pb       3.90002     11.41303      4.39658        -0.053452      0.512532     -0.125539
Pb       3.68151     11.49133      0.02294         0.290304     -0.133433     -0.405038
Pb      15.30706     11.37162      4.35134        -0.154187      0.528268      0.025105
Pb       0.08410     11.39853      0.09172        -0.285063      0.339608     -0.204589
Pb       3.79041     11.46385      8.65516        -0.011925      0.065146      0.283920
Pb       0.08836     11.64965      8.62516        -0.578988     -0.779069      0.265712
Pb       3.74274     11.58158     13.03283         0.403822     -0.529674      0.088290
Pb      15.14287     11.45273     12.95257         1.163007      0.120466      0.712902
Pb       7.57139      3.94751      4.23225         0.052965      0.036502      0.310721
Pb       7.67821      3.80959     17.42741        -0.298982      0.348241     -0.244690
Pb       7.55121     15.30350      4.27748         0.424498     -0.133893      0.373520
Pb       7.82526     15.25448      0.02313         0.194821      0.149200     -0.188504
Pb       7.69576      3.83107      8.64043        -0.123874     -0.385431      0.674461
Pb       7.70225      0.10273      8.70202        -0.295567     -0.472930      0.556675
Pb       7.54374      3.67619     13.00541         0.066301      0.305822      0.010535
Pb       7.70339     15.12208     13.13991        -0.105139      0.022964     -0.730057
Pb       7.63929      7.79045      4.38808        -0.080420     -0.091579     -0.232534
Pb       7.71487      7.55802     17.36963        -0.174633      0.448504      0.650276
Pb       7.68551      7.56444      8.73807         0.202304      0.187892     -0.570942
Pb       7.78660      7.65482     13.11545        -0.561171     -0.051038     -0.167818
Pb       7.64725     11.48562      4.30508        -0.110846      0.108272     -0.112955
Pb       7.67346     11.44198     17.32273         0.250797     -0.246959      0.581959
Pb       7.73866     11.49362      8.79898        -0.116906     -0.299282     -0.352844
Pb       7.56608     11.51755     13.06097        -0.298662      0.259161      0.029138
Pb      11.58171      3.92707      4.35212        -0.510676     -0.381939      0.379955
Pb      11.33362      3.78813     17.37134         0.068719     -0.044451     -0.242998
Pb      11.54442      0.11892      4.35753        -0.513832     -0.518323      0.304094
Pb      11.65385      0.06732     17.36909        -0.472142     -0.646562      0.709041
Pb      11.67652      3.67644      8.67619        -0.540438      0.164485      0.201572
Pb      11.51979      0.03877      8.68101         0.142462     -0.216869     -0.102519
Pb      11.42202      3.89184     12.88033         0.656975     -0.328399      0.778172
Pb      11.44115     15.31939     13.12833         0.092052      0.036077     -0.359699
Pb      11.53693      7.65584      4.42128         0.098772      0.251732     -0.238429
Pb      11.42966      7.70708     17.32710         0.517810     -0.068993      0.316324
Pb      11.50139      7.61487      8.67348        -0.461758      0.356150      0.123013
Pb      11.61075      7.65876     13.06584         0.069601     -0.005866     -0.289177
Pb      11.40466     11.56062      4.35059         0.469488      0.217385     -0.042926
Pb      11.60287     11.55410     17.40766        -0.100653     -0.142406      0.170057
Pb      11.38582     11.53058      8.73559         0.534842     -0.279249     -0.204174
Pb      11.44186     11.59112     13.08540        -0.112674     -0.051293     -0.188292
Ti       1.77690      1.92791      2.34486         0.936488     -0.217874      0.431451
Ti       1.81935      1.98291     15.40390         0.559944     -0.248773     -2.289136
Ti       1.81865     13.42757      2.44808         0.242593     -0.043748     -1.173180
Ti       1.91287     13.48807     15.37659        -0.794808     -0.415314     -0.413226
Ti      13.36739      1.91275      2.35447        -0.141316     -0.178987     -0.750252
Ti      13.34970      1.95004     15.35487        -1.078012     -0.641108     -1.122494
Ti      13.35795     13.41659      2.39531         0.245815     -0.090818     -0.939954
Ti      13.49038     13.38918     15.42082        -0.234374      0.579627     -1.183983
Ti       1.89604      1.79834      6.52171        -0.967414      0.879238     -1.531607
Ti       1.93068     13.39808      6.51199        -0.253225     -1.128657     -0.687353
Ti      13.46334      1.88604      6.66162        -0.530127     -0.416274      0.164888
Ti      13.36689     13.42610      6.66388        -0.791380     -0.231289     -0.636972
Ti       1.85610      1.87646     11.11170         0.648774      0.301120     -0.524432
Ti       1.88346     13.44373     11.14622         0.060180     -0.032398     -0.361581
Ti      13.35646      1.80945     11.11256        -0.618533      0.440147     -2.316560
Ti      13.39864     13.39322     11.08068        -0.858636      0.049906     -1.664518
Ti       1.90036      5.72760      2.37307        -0.554757     -0.434799     -1.615018
Ti       1.81304      5.75997     15.37705         0.882808      0.724380      0.905316
Ti      13.28946      5.71992      2.14433         1.030195      0.226926      0.993246
Ti      13.39316      5.76559     15.37926        -0.357800      0.045473     -1.260354
Ti       1.88106      5.65345      6.57031        -0.752761     -0.137366     -0.727043
Ti      13.38853      5.71685      6.74350         0.415336     -0.272734      0.146312
Ti       1.95034      5.72861     11.03061        -0.564606      0.182553     -1.267640
Ti      13.41054      5.72719     10.97580         0.312385     -0.041740     -1.202702
Ti       1.99416      9.54240      2.40948        -1.301214      0.440733     -1.497857
Ti       1.89692      9.62954     15.35395         0.703022     -0.772584     -0.714596
Ti      13.49667      9.53154      2.39577        -2.541154      0.069889     -1.137616
Ti      13.51504      9.55667     15.42210        -0.677841     -0.447398     -0.960144
Ti       1.94090      9.50063      6.67044        -0.571312      0.206639      0.269975
Ti      13.40591      9.58551      6.71462        -0.395226     -0.002615     -0.939283
Ti       1.93151      9.59794     11.02967        -0.035602     -0.003428     -0.978680
Ti      13.37022      9.58049     10.99733         0.093770     -0.352702     -2.014978
Ti       5.71764      1.91701      2.27555        -0.411593      0.049126     -0.102595
Ti       5.69648      1.89101     15.42518        -0.247237      0.695439      0.465899
Ti       5.68816     13.36303      2.24626        -0.761747      0.258473      0.233151
Ti       5.67460     13.37634     15.55759         1.229484     -0.859456     -2.446524
Ti       5.62799      1.84449      6.63124         0.180075      0.247392     -0.717080
Ti       5.72097     13.42503      6.75780        -0.265049     -0.272875     -1.706463
Ti       5.64628      1.84476     11.07923         0.546772     -0.405641     -0.744496
Ti       5.67759     13.35138     11.03180         0.874906     -0.064883     -0.683856
Ti       5.68426      5.78732      2.22717         0.700812      0.314276     -1.139350
Ti       5.70810      5.80670     15.42147         0.338574     -0.837919     -0.153200
Ti       5.71009      5.71351      6.59736         0.344871      0.824018     -0.085473
Ti       5.71784      5.74375     11.08883        -0.144441     -0.546717     -2.147646
Ti       5.76957      9.56452      2.33041         0.714631     -0.463260     -1.169163
Ti       5.81194      9.56192     15.37098        -1.359456      0.422899     -0.346772
Ti       5.80353      9.61469      6.78857         0.103675     -0.514515     -1.496531
Ti       5.78064      9.50430     10.97774        -2.148866      0.899727     -0.648156
Ti       9.47621      1.99997      2.46175         1.140395     -0.732583     -1.172938
Ti       9.52144      1.92051     15.27364         1.972094      0.058485     -0.918222
Ti       9.51909     13.51011      2.34662         0.618204      0.148914     -1.305297
Ti       9.61563     13.44296     15.43155        -0.086022     -1.080396     -0.616739
Ti       9.51369      1.86662      6.70152         0.875842     -0.141736     -1.030422
Ti       9.45958     13.40765      6.71088         0.998367      0.227839     -1.436238
Ti       9.51837      1.87151     11.10213        -0.333134     -1.567428     -0.794349
Ti       9.55454     13.36471     11.01011         0.087703      0.842567      1.080911
Ti       9.57010      5.81406      2.33943        -0.301827     -0.112845     -0.873236
Ti       9.57577      5.80844     15.27427         0.014452     -1.111027     -0.397314
Ti       9.52211      5.67190      6.74982         0.696087      0.643765      0.229706
Ti       9.51847      5.69399     11.07761         0.538750      0.560982     -1.883513
Ti       9.70019      9.65638      2.34454        -0.900656     -0.598972     -1.191295
Ti       9.62720      9.57845     15.38375         0.158653      0.339504     -0.248497
Ti       9.54593      9.59232      6.56957         0.618429     -0.976849      1.117193
Ti       9.53332      9.53289     11.09050         0.916863      0.652126     -2.380186
O       1.93003      1.85890      0.56939        -0.479229      0.318150     -0.704841
O       1.64526      1.87250     13.55634         0.668841      0.259899      1.788242
O       1.90728     13.38419      0.53472        -0.159199      0.163563      1.344890
O       1.81587     13.46242     13.58630         0.130643      0.186579      0.621596
O      13.37588      1.86494      0.54536        -0.044276      0.287796      0.615917
O      13.16006      1.84085     13.55740         0.644383      0.211793      0.303200
O      13.42056     13.45219      0.56173        -0.068355     -0.329747      1.143837
O      13.45130     13.36105     13.55307        -0.023218      0.010292      1.593802
O       1.64623      1.80593      4.69465         0.987412      0.179776      1.935522
O       1.90268     13.29447      4.72737         0.031543      0.244259      0.868031
O      13.43551      1.90727      4.88790        -0.026841     -0.213409     -0.398909
O      13.24442     13.49280      4.86674         0.236955     -0.365083      0.805796
O       1.92748      1.84922      9.29435        -0.337970      0.170720      0.547920
O       1.99624     13.42925      9.37715        -0.528829      0.081651     -0.193378
O      13.29370      1.81183      9.17143         0.312900      0.258370      1.897396
O      13.33073     13.16724      9.24676         0.297891      0.812537      1.356853
O       1.85842      5.74872      0.52777        -0.033623     -0.026198      1.608007
O       1.85499      5.78779     13.64526         0.121811      0.008807     -0.403175
O      13.23653      5.72503      0.41289         0.169306     -0.175255     -0.702695
O      13.41540      5.88289     13.51767        -0.117076     -0.236788      1.199202
O       1.78422      5.62439      4.72617         0.608955      0.665427      0.950196
O      13.39155      5.68558      4.94307        -0.294920      0.273469      0.528032
O       1.92434      5.62368      9.16883         0.030104     -0.099954      1.484358
O      13.55213      5.58415      9.16020        -0.281492      0.397055      0.898934
O       1.84223      9.42290      0.51594         0.394533      1.012129      2.013302
O       1.93344      9.54184     13.53487        -0.201086      0.105967      1.226617
O      13.45477      9.59347      0.60574        -0.006606      0.023490     -0.255826
O      13.41040      9.43582     13.54933         0.326579      0.263782      1.459728
O       1.98243      9.38947      4.89435        -0.119476      0.832549      0.332868
O      13.38172      9.28708      4.86019         0.113128      0.806827      1.583746
O       1.91868      9.57972      9.18401         0.289217      0.152536      0.909358
O      13.41394      9.73012      9.17749         0.102011     -0.564090      0.928580
O       5.85565      1.83520      0.48793        -0.484043      0.086863      0.179421
O       5.63546      1.99664     13.65394         0.396912     -0.192441      0.098576
O       5.50136     13.51283      0.44680         0.608247     -0.217123      0.201139
O       5.78814     13.20063     13.65598        -0.110202      0.728224      1.302615
O       5.44296      1.88680      4.84638         1.082078     -0.188237      0.781090
O       5.61059     13.42754      4.89851         0.354189     -0.279119      0.927132
O       5.62604      1.71477      9.31189        -0.116039      0.425803     -0.177066
O       5.74505     13.38661      9.21939        -0.378332      0.149195      0.883063
O       5.80393      5.67924      0.40201        -0.156140      0.414107      0.765491
O       5.83875      5.70094     13.57471        -0.639688      0.039562      1.134430
O       5.81339      5.78336      4.78726        -0.320944     -0.026468      1.077334
O       5.67541      5.59417      9.18292        -0.111551      0.446904      1.729294
O       5.83019      9.50321      0.53035        -0.288097      0.186561      0.641008
O       5.75589      9.51798     13.57784        -0.128350      0.139494      0.720207
O       5.73297      9.56342      4.84770         0.039553      0.173319      1.372794
O       5.77495      9.62870      9.14335         0.073379     -0.373950      0.838955
O       9.59154      2.10571      0.65581        -0.453981     -0.239221      0.104789
O       9.55991      1.74526     13.45421        -0.186657      0.347407      1.246019
O       9.58466     13.45191      0.49508        -0.388758     -0.036536      1.059979
O       9.52819     13.25931     13.57163         0.072304      0.672724      1.645807
O       9.48544      1.70807      4.91310        -0.268532      0.807556      0.875772
O       9.40408     13.44884      4.86320         0.123302     -0.290896      1.070941
O       9.57062      1.80471      9.30673        -0.134219      0.096344     -0.122828
O       9.61712     13.23904      9.26322        -0.431216      0.405094     -0.873380
O       9.59033      5.74297      0.51118        -0.006384     -0.051635      1.331850
O       9.51703      5.94813     13.47741         0.083955     -0.374065     -0.281967
O       9.55032      5.58063      5.00477        -0.197243      0.202165     -0.722830
O       9.56836      5.79221      9.26800        -0.645250     -0.307199      0.851982
O       9.47203      9.64971      0.47004         0.770205     -0.236182      1.610594
O       9.67143      9.55938     13.56680        -0.438356     -0.274331      0.438640
O       9.53375      9.57404      4.77828        -0.010645      0.236612      0.138943
O       9.46505      9.70550      9.18765        -0.177763     -0.679527      2.262267
O       3.71460      1.95420      2.81201         0.766157     -0.529348     -0.826745
O       3.78440      2.05344     15.73245         0.386975     -0.460166     -0.050340
O       3.73465     13.37880      2.74377         0.619735      0.036983     -0.308660
O       3.81576     13.36647     15.69805        -1.118921      0.388877      0.434214
O      15.26830      1.97566      2.65589        -0.652558      0.245102     -0.154810
O      15.27016      1.99931     15.79936         0.024758     -0.474570     -0.114140
O      15.23975     13.33390      2.90465         0.233788     -0.241450     -0.574538
O      15.34566     13.44757     15.87849         0.363059      0.202373     -0.356656
O       3.74141      1.84959      7.04686         0.439758     -0.238101     -0.085294
O       3.80032     13.44604      7.08220        -0.159139     -0.577225     -0.060815
O      15.34616      1.75348      7.00364         0.980415      0.262451      0.518221
O      15.33743     13.38097      6.97657         0.182731      0.061703      0.113758
O       3.81884      1.72039     11.56608        -1.101050      0.906251     -0.008905
O       3.81415     13.38388     11.44325        -0.593506      0.383699      0.274807
O      15.19569      1.92496     11.36335         0.843057      0.136115      0.203461
O      15.21433     13.42639     11.43849         1.252915     -0.042622     -0.030520
O       3.86358      5.67519      2.55000        -1.919731      0.233232      0.635961
O       3.77787      5.81269     15.93446         0.709137     -0.430865     -1.076208
O      15.24879      5.66409      2.68479         0.098132      0.389013     -0.454972
O      15.33709      5.64261     15.84190        -1.086461      0.471772     -0.309240
O       3.78590      5.67329      7.04029         0.218817      0.331710     -0.474215
O       0.01466      5.71582      6.96324        -0.303951     -0.172842      0.253108
O       3.77005      5.77838     11.46379         0.330261     -0.790095      0.277855
O       0.01850      5.68964     11.44460        -0.234062      0.640835     -0.365909
O       3.78984      9.56617      2.80795         0.420976      0.582446     -0.370264
O       3.82460      9.52874     15.85623        -0.067511      0.394350     -0.415597
O      15.21587      9.52415      2.79518         3.078264      0.161246      0.305501
O       0.01038      9.55897     15.90525        -0.309183     -0.026763     -0.698013
O       3.88928      9.56634      7.10816        -1.060496      0.186329     -0.267711
O       0.01382      9.61049      7.09854        -0.329342     -0.325965     -0.367167
O       3.81334      9.73349     11.46985        -0.112798     -0.676659     -0.191694
O      15.34355      9.47808     11.33963        -0.250049      0.500494      0.199519
O       7.59540      1.91819      2.71310        -1.078975      0.039690      0.262084
O       7.79455      1.90034     15.70225        -2.144613     -0.047326      0.373087
O       7.52116     13.42309      2.63183         0.692248      0.126117      0.027748
O       7.63901     13.49584     15.84084         0.310814     -0.303245      0.033390
O       7.58923      1.80276      7.16824         0.235449      1.107846     -0.733864
O       7.58455     13.50428      7.03834         1.209068     -0.499312      0.366080
O       7.52911      1.93320     11.40442         0.653285     -0.102108      0.355722
O       7.61776     13.41061     11.49635        -0.153458     -0.973431     -0.257183
O       7.52340      5.77581      2.56937         1.897855      0.001199      0.627509
O       7.74038      5.79607     15.76775        -1.077294     -0.423020     -0.089977
O       7.61533      5.56878      7.18185        -0.445076      0.755826     -0.653263
O       7.57730      5.67002     11.34384         0.623920      0.108306      0.365369
O       7.65347      9.53337      2.76721         0.088361      0.028357     -0.057532
O       7.61967      9.60728     15.74321         1.391590     -0.135429     -0.171796
O       7.68709      9.56093      7.00922        -0.299996      0.155541      0.019519
O       7.50752      9.59705     11.45346         2.609269     -0.318707      0.012701
O      11.35475      1.82255      2.79322         1.432519      0.417776     -0.106481
O      11.46066      1.81654     15.94409        -0.346698      0.828537     -0.875835
O      11.38791     13.54369      2.70382         0.660874     -0.484347      0.185385
O      11.57094     13.41084     15.79022        -0.565121     -0.638273     -0.161456
O      11.52569      1.88979      6.96178        -0.701789     -0.409778      0.397084
O      11.42057     13.38478      7.11162         0.345063      0.204407     -0.282702
O      11.36339      1.69999     11.43261         1.264544      0.681453      0.068529
O      11.45884     13.48227     11.52709         0.450342     -0.507250     -0.209080
O      11.49090      5.64876      2.73033        -1.304521      0.492339     -0.129851
O      11.40330      5.83760     15.66244         1.298750      0.250205      0.209929
O      11.45035      5.80370      7.20253         0.896502     -0.426447     -0.636779
O      11.44579      5.77167     11.29137         0.338248     -0.038387      0.464145
O      11.54157      9.54832      2.77449        -1.647534     -0.011261     -0.112252
O      11.55223      9.56550     15.75966        -0.309596      0.055731      0.070959
O      11.44084      9.45889      7.01811         0.323267     -0.128108     -0.156053
O      11.47701      9.44875     11.26752        -0.434225      0.268158      0.467432
O       1.89176      3.83948      2.72373        -0.209540      0.273403     -0.227586
O       1.82132      3.87408     15.74797         0.445588     -0.692955      0.264920
O       1.70167     15.35295      2.67972         0.346766     -0.759020     -0.152489
O       1.92358      0.04988     15.73995        -0.102258     -0.325265      0.191801
O      13.23704      3.81261      2.68878         0.595739     -0.245874     -0.274267
O      13.21282      3.84052     15.57507         0.584731      0.019455      0.684686
O      13.49728     15.34748      2.80338        -0.648991      0.165215     -0.385162
O      13.31192      0.02555     15.71123         0.967935     -0.606365      0.003085
O       1.83735      3.71804      6.77652         0.098550      0.080493      0.708904
O       1.93199     15.21795      6.90187        -0.335529      1.179212      0.469185
O      13.38755      3.76496      7.00116         0.344053      0.650048      0.283245
O      13.47679     15.31026      7.09728        -0.462662     -0.424039     -0.003254
O       1.82410      3.80985     11.52103         0.679833      0.051758     -0.386454
O       1.77389      0.06188     11.41489        -0.151621     -1.523125      0.374837
O      13.35702      3.86430     11.36466        -0.449524     -0.899088      0.357545
O      13.39171     15.33246     11.40648        -0.061711     -0.392155      0.047270
O       1.89390      7.73058      2.76521        -0.140090     -1.768694     -0.102152
O       1.92454      7.74095     15.91310        -0.395899     -1.009754     -0.904078
O      13.30772      7.57991      2.74379         0.201467     -0.362944     -0.319456
O      13.41961      7.60525     15.75895         0.145286      0.990952      0.152943
O       1.88462      7.58725      7.01693         0.391779      0.387148      0.073481
O      13.45002      7.62538      7.16552        -0.034451      0.007560     -0.104162
O       2.04351      7.73441     11.34893        -0.490801     -1.045276      0.039863
O      13.41682      7.63075     11.28683         0.114709     -0.030530      0.196676
O       1.83921     11.47064      2.74778        -0.219145     -0.705938     -0.138631
O       1.88405     11.48958     15.79199         0.053065      0.416568      0.080721
O      13.24963     11.43991      2.75336         0.471091      1.138893      0.253631
O      13.50958     11.46416     15.77968        -0.234530      0.094324      0.011995
O       1.83105     11.48686      7.03059         1.040741      0.054679     -0.331453
O      13.31285     11.45527      6.89630         0.401852      0.022101     -0.063691
O       1.79094     11.55737     11.46251         0.043005     -0.160884     -0.061948
O      13.40073     11.41436     11.53153        -0.659483      0.677320     -0.465920
O       5.67238      3.82411      2.62888         0.254550     -0.412557      0.092037
O       5.78833      3.86482     15.86969         0.022921     -0.555107     -0.526343
O       5.66521     15.33769      2.73435        -0.190152      0.120035     -0.612180
O       5.66347     15.33077     15.73660        -0.009065      0.919271     -0.004728
O       5.65773      3.83458      6.87148         0.150397     -1.121455      0.442539
O       5.78836     15.33905      7.06756        -0.866012      0.310726     -0.059895
O       5.63458      3.81735     11.40232        -0.315822     -0.325577      0.503898
O       5.71671     15.26149     11.56747         0.121944      0.101209      0.037778
O       5.52573      7.70343      2.62674         0.605250     -0.781193      0.258583
O       5.80195      7.67808     15.75022        -0.204986     -0.621343      0.006435
O       5.74985      7.66780      7.08581         0.058572     -0.842843     -0.192175
O       5.57106      7.60418     11.43505         0.674326      0.649649     -0.403517
O       5.79621     11.47404      2.49820        -0.785876      0.627851      0.696496
O       5.67931     11.48633     15.82171         0.269412     -0.191147      0.317765
O       5.82492     11.51382      7.06509        -0.491703     -0.104583     -0.004950
O       5.66634     11.40779     11.38557         0.472208      1.250605      0.058318
O       9.48770      3.86602      2.82974         0.018547      0.589185     -0.140468
O       9.73938      3.86002     15.48638        -0.646941     -0.841919      0.391300
O       9.44412      0.00551      2.69520        -0.522541     -0.304252     -0.070332
O       9.63844     15.25359     15.80219        -0.314577      1.205798     -0.333042
O       9.64713      3.80674      7.22630        -0.559024     -1.187543     -0.377979
O       9.59874     15.31702      7.10505        -0.316262      0.161225      0.186278
O       9.61990      3.73061     11.40862        -0.655429      1.331533      0.113185
O       9.43184     15.22582     11.39221        -0.027964      0.787900      0.333927
O       9.59470      7.66993      2.75360        -0.078994     -0.501116     -0.238454
O       9.55946      7.64893     15.82226        -0.103272      1.331927     -0.339648
O       9.42988      7.60103      6.97347         0.048946      0.404173      0.365647
O       9.47994      7.65441     11.27518        -0.506495      0.180317      0.621853
O       9.54358     11.52253      2.67652         0.027426      0.035121      0.282359
O       9.54853     11.45847     15.76104         0.235715      0.270252      0.032506
O       9.61725     11.43956      7.05200        -0.749297      0.824653     -0.451165
O       9.68973     11.50014     11.35117        -0.600561     -1.147769      0.608228
