  # total energy = -7879.32257244 
CRSYTAL
PRIMVEC
    15.2000000000000000    0.0000000000000000    0.0000000000000000
     0.0000000000000000   15.2000000000000000    0.0000000000000000
     0.0000000000000000    0.0000000000000000    17.000000000000000
PRESSURE
7.41527 7.50828 2.29711 0.069012 0.106451 0.009157
PRIMCOORD
320 1
Pb       3.78013      3.70286      4.12869        -0.333154      0.397110      0.352644
Pb       3.90559      3.81461     16.93095        -0.531523      0.306138     -0.140249
Pb       3.69731      0.04119      4.24775         0.103627     -0.277311      0.150231
Pb       3.73575     15.18403     16.96154         0.127735      0.155959     -0.043021
Pb       0.02806      3.79388      4.23521        -0.273138      0.193707     -0.484478
Pb      15.17944      3.68744      0.08747        -0.377703      0.321641     -0.006631
Pb      15.19802      0.05977      4.31483         0.549340     -0.481294     -0.270282
Pb      15.05238     15.15946      0.04057         0.223912     -0.001445      0.083058
Pb       3.97752      3.79136      8.52337        -0.531131     -0.021181     -0.014086
Pb       3.78143     15.05011      8.70632         0.099235      0.526152     -1.069199
Pb       0.15700      3.78263      8.50274        -1.104298     -0.158335      0.273776
Pb      15.15038     15.04181      8.46953         0.286956      0.569097     -0.020899
Pb       3.71731      3.82539     12.70857         0.168340      0.132444      0.167163
Pb       3.59014      0.07075     12.80327         0.710515     -0.227891     -0.044554
Pb      15.11898      3.85413     12.66285         0.102442     -0.174042      0.174474
Pb      15.18806      0.16218     12.83131        -0.049797     -0.399456     -0.318694
Pb       3.78981      7.46712      4.17960         0.442132      0.266423      0.754288
Pb       3.81874      7.53913     16.93847        -0.035872      0.089086      0.516675
Pb       0.00152      7.63289      4.18714        -0.392625     -0.361537      0.316766
Pb      15.06813      7.55257     16.91822         0.114415      0.185677      0.400883
Pb       3.86657      7.68311      8.43500        -0.131203     -0.442515      0.047116
Pb       0.07090      7.52945      8.38372        -0.501820      0.025687      0.250893
Pb       3.72954      7.57129     12.66966         0.152110      0.101973      0.660540
Pb       0.01183      7.61040     12.61289        -0.311748      0.172270      0.648220
Pb       3.69380     11.23016      4.23721         0.183091      0.147004     -0.195266
Pb       3.84342     11.31080      0.25166        -0.319643      0.265897     -1.127463
Pb       0.05941     11.37919      4.18017        -0.307803     -0.284494      0.147529
Pb      15.18452     11.39213      0.09259         0.269749     -0.113770     -0.198205
Pb       3.86132     11.34050      8.56871         0.285185      0.276683     -0.284039
Pb       0.00021     11.40718      8.40601         0.055927      0.167854      0.290082
Pb       3.63307     11.33255     12.87928         0.282009      0.190824     -0.467753
Pb      15.18740     11.32950     12.86932         0.340848     -0.053971     -0.857601
Pb       7.47945      3.63499      4.23305         0.162887      0.350811     -0.007616
Pb       7.54076      3.71621     16.85461         0.172064      0.549710      0.661041
Pb       7.59376     15.07658      4.27964        -0.310687      0.244005      0.056769
Pb       7.64803     15.13517     16.95133        -0.149918      0.140691      0.096808
Pb       7.56821      3.78307      8.59838        -0.149591     -0.092650     -0.443289
Pb       7.65992     15.16345      8.42069        -0.318452     -0.269176      0.721347
Pb       7.60879      3.91909     12.79584        -0.307834     -0.502542     -0.021305
Pb       7.59570      0.00002     12.74567         0.082856      0.138943      0.223947
Pb       7.70999      7.45740      4.24792        -0.586436      0.475440     -0.435725
Pb       7.53648      7.72713     16.90101         0.745279     -0.922073      0.523102
Pb       7.56367      7.61140      8.48565        -0.112611      0.002745     -0.075218
Pb       7.52964      7.66243     12.72261        -0.124005     -0.247959      0.456370
Pb       7.56033     11.23786      4.36542         0.126799      0.367404     -0.894037
Pb       7.70364     11.42730     16.87656        -0.089081      0.051969      0.452838
Pb       7.64390     11.42757      8.58225        -0.585502      0.030786     -0.311524
Pb       7.54024     11.34315     12.70087        -0.075006      0.129138      0.146234
Pb      11.26670      3.73548      4.32455         0.279659      0.063311     -0.410551
Pb      11.29832      3.63806      0.01154         0.344624      0.366213     -0.013286
Pb      11.36597     15.13922      4.26213        -0.161769      0.066176      0.218769
Pb      11.39078     15.15297      0.01581         0.007055      0.150856     -0.199658
Pb      11.42950      3.87064      8.52197         0.254045     -0.790981     -0.426528
Pb      11.43263      0.02915      8.23836         0.090014      0.136935      0.824131
Pb      11.32620      3.83883     12.76282        -0.197593     -0.086981      0.362991
Pb      11.47432      0.01805     12.58302        -0.651340     -0.212835      1.108365
Pb      11.35517      7.62984      4.24284         0.507855     -0.288839     -0.296268
Pb      11.28839      7.52173     16.91686         0.209026      0.372346      0.196866
Pb      11.31646      7.52706      8.50945         0.319154      0.253969     -0.272381
Pb      11.39836      7.61407     12.70487        -0.344536      0.209691     -0.128913
Pb      11.28013     11.19771      4.29820         0.537833      0.510656     -0.529898
Pb      11.35955     11.57792     16.91430        -0.030377     -0.753080      0.021186
Pb      11.50188     11.42129      8.45869        -0.369496     -0.116533      0.279220
Pb      11.40404     11.55464     12.56379        -0.066955     -0.802248      0.588553
Ti       1.86562      1.92956      2.11200        -0.558129     -0.398947     -0.390645
Ti       1.83632      1.91893     15.00725         0.846333      0.920954     -0.494274
Ti       1.86136     13.26401      2.28429         0.119475      0.308807      0.826990
Ti       1.87923     13.35266     15.03625        -0.053914     -1.249782     -0.253860
Ti      13.23507      1.80274      2.30958         0.742635      1.352890     -0.116026
Ti      13.30292      1.93435     15.01863        -1.333028     -0.484880      0.263362
Ti      13.27792     13.24881      2.33524         0.199941     -0.119525     -0.339629
Ti      13.37667     13.24651     14.95139        -0.574958      1.444531      0.371467
Ti       1.83795      1.87673      6.62440         1.169523     -0.959492     -0.770963
Ti       1.93326     13.24530      6.42400        -0.153768      1.219372     -0.385787
Ti      13.36263      1.88691      6.34589        -0.840927      0.454253      0.197149
Ti      13.30707     13.24711      6.43907         0.646961      0.102621     -1.076251
Ti       1.87460      1.88995     10.75498         0.025393      0.173427      0.397518
Ti       1.86048     13.27706     10.76991         0.522713     -0.461383      1.865775
Ti      13.23653      1.88436     10.75038         1.215640      0.872013     -1.595681
Ti      13.37046     13.33531     10.74379        -0.017964     -1.195023     -0.903058
Ti       1.86553      5.68139      2.16867        -0.465604     -0.126851     -0.481800
Ti       1.74569      5.73790     15.04952         1.363006     -0.305988      0.099439
Ti      13.23152      5.66337      2.23275         0.429965     -0.050002      0.388286
Ti      13.17993      5.70753     14.95198         0.254771     -0.923514      0.645238
Ti       1.83898      5.63573      6.50896         1.201813      0.583075     -0.789907
Ti      13.20476      5.67976      6.45582         0.560800      0.069124      0.079749
Ti       1.80031      5.70662     10.69737         1.250581      0.014178     -0.558155
Ti      13.16326      5.66206     10.71630         0.418216      0.058374     -1.322603
Ti       1.95266      9.29795      2.06672        -1.150918      1.789654      0.612616
Ti       1.90411      9.49606     15.08971         0.358934      0.481205     -0.827038
Ti      13.31130      9.45289      2.15710        -0.225357     -0.293247      0.028907
Ti      13.28834      9.50901     14.93407        -0.347512     -0.530224      1.004666
Ti       1.87604      9.51648      6.46096         0.650504     -0.620530     -0.361230
Ti      13.29857      9.45577      6.47577         0.090574     -0.319453     -1.203169
Ti       1.80648      9.46395     10.59373         0.658970      1.336343      0.673173
Ti      13.26027      9.45188     10.64118         0.077887      0.519823      1.415136
Ti       5.61967      1.85604      2.12601         0.719806     -0.334526     -0.366179
Ti       5.67059      1.89087     14.91501        -0.193321      0.183336     -0.721091
Ti       5.60719     13.27024      2.21156         0.904442      0.497344     -0.045701
Ti       5.67447     13.32510     15.03519         0.417674     -0.113884     -0.777079
Ti       5.65792      1.85755      6.55008        -0.148141     -0.451979      0.478896
Ti       5.66010     13.33773      6.45365         0.091493     -1.142558     -0.083045
Ti       5.73745      1.86381     10.83458        -0.147587      0.095608     -0.284753
Ti       5.64208     13.27302     10.94340        -0.359502     -0.853951      0.540654
Ti       5.69323      5.69986      2.24766        -0.128498     -0.177806     -1.472120
Ti       5.68251      5.78214     15.03379        -0.293518     -0.474903      0.051488
Ti       5.63452      5.68254      6.42143        -0.190352      0.351663      1.527400
Ti       5.65028      5.70873     10.67573        -0.524855     -0.098082     -0.659870
Ti       5.75303      9.50733      2.19203         0.448341     -0.145192      0.977912
Ti       5.72949      9.57703     15.00864        -0.936300     -0.902485     -0.161227
Ti       5.74019      9.54409      6.45029        -1.093543      0.087576     -0.245982
Ti       5.60816      9.47875     10.76802         0.497939      0.562565     -0.124126
Ti       9.37865      1.85788      2.27330         0.059344      0.396898     -1.147265
Ti       9.45142      1.87858     14.92873         0.536429     -0.088397      0.263514
Ti       9.48100     13.28159      2.33218        -0.522999     -0.396105     -0.272831
Ti       9.54004     13.33924     14.88728        -0.474300      0.045773     -0.161500
Ti       9.42569      1.89485      6.51112         1.147093     -0.280273     -0.685518
Ti       9.50675     13.20958      6.50728        -0.741011      0.451387      0.640565
Ti       9.55251      1.92702     10.72871        -1.037884     -0.660497      0.102404
Ti       9.46442     13.31875     10.69354         0.268447      0.714408     -0.313979
Ti       9.49966      5.68261      2.20896        -0.351749     -0.669991     -1.119738
Ti       9.48482      5.62666     14.99399        -0.569390      0.931904     -1.291076
Ti       9.39390      5.62623      6.50804        -0.192794      0.325387      1.474910
Ti       9.37245      5.74167     10.69387         0.519965      0.510098      0.322401
Ti       9.49534      9.47929      2.05375        -0.479186      0.570481      0.859259
Ti       9.50834      9.47833     14.82507         1.123670      0.140880      0.633545
Ti       9.49491      9.44358      6.50836        -0.098963      0.274768      0.251061
Ti       9.49136      9.49402     10.73282        -0.275892     -0.178731     -0.321226
O       1.86745      2.09066      0.31663         0.078609     -0.632865     -0.127629
O       1.84786      1.87567     13.15572        -0.307665     -0.017859      0.589973
O       1.82332     13.28303      0.55094         0.371923      0.295057     -1.116668
O       1.78715     13.33081     13.20573         0.092599     -0.001262      1.465214
O      13.31994      1.83220      0.49785        -0.257676     -0.170106     -0.095309
O      13.20755      1.81697     13.25504         0.458163      0.547412     -0.645751
O      13.23264     13.37569      0.47266         0.118646     -0.126828      1.184313
O      13.42026     13.23725     13.17238        -0.148285      0.080268     -0.074185
O       1.88173      1.87220      4.79952        -0.106473      0.372790      0.397770
O       1.95051     13.41748      4.61431        -0.128837     -0.795326      0.997179
O      13.57568      1.88278      4.53092        -0.779880      0.338220      0.930409
O      13.36514     13.11788      4.66056        -0.226420      0.337824      0.506471
O       1.90315      1.81178      8.99816         0.005451      0.370953     -0.567912
O       1.79457     13.28718      9.04296         0.403039      0.146011     -1.528531
O      13.18938      2.04232      8.97321        -0.007171     -0.279641      0.292974
O      13.39491     13.31771      8.92212        -0.242728     -0.297523      0.091612
O       1.89576      5.75730      0.36998        -0.399336     -0.348816      0.408182
O       1.96634      5.89673     13.27628        -0.732406     -0.600874     -0.272712
O      13.09567      5.76567      0.47586         0.515544     -0.285394      0.107993
O      13.22589      5.60806     13.18570        -0.219807      0.363836     -0.771519
O       1.92526      5.61526      4.69245        -0.192618      0.221608      0.838496
O      13.29478      5.81956      4.69300        -0.127112     -0.501830      0.156025
O       1.93668      5.57141      8.93451        -0.499683      0.354210      0.008690
O      13.14840      5.58290      8.83813         0.123096      0.211786      1.687201
O       1.83498      9.46428      0.29325         0.241692     -0.074772      0.765587
O       1.99003      9.46905     13.23875        -0.475289      0.169746      0.661486
O      13.43952      9.45295      0.37280        -0.699822      0.036773      0.478689
O      13.26018      9.46423     13.16429         0.046513      0.134299      0.341857
O       1.84771      9.52076      4.62023         0.315399     -0.309628      1.091538
O      13.41359      9.50467      4.62437        -0.757937     -0.107905      1.117305
O       1.90215      9.47719      8.80410        -0.391773      0.317249      0.883735
O      13.28505      9.38490      8.92045         0.005791      0.468112     -1.467146
O       5.73747      2.00931      0.31530        -0.219975     -0.688393      0.913315
O       5.68443      1.92193     13.10849        -0.163981     -0.031042      0.230405
O       5.68734     13.29500      0.37857        -0.268889     -0.175680      0.932902
O       5.70753     13.27967     13.24019         0.016802      0.142996      0.623809
O       5.67940      1.78036      4.78928        -0.159041      0.227166     -0.254175
O       5.72473     13.44793      4.69502        -0.222097     -0.599672     -0.351696
O       5.73636      1.87159      9.00636         0.015332      0.166077      0.678342
O       5.66849     12.99250      9.21904        -0.154085      0.747458     -1.184985
O       5.65408      5.69152      0.38488         0.431473     -0.231882      1.823621
O       5.62461      5.96227     13.28239        -0.046886     -0.846973     -0.695045
O       5.62793      5.72585      4.66764         0.061543     -0.198686     -0.709743
O       5.67772      5.69569      8.83852        -0.104187     -0.205485      1.342613
O       5.77123      9.61424      0.42033         0.204723     -0.161828      0.065874
O       5.69233      9.36491     13.23305        -0.064930      0.330713     -0.086166
O       5.73438      9.61685      4.62405        -0.124733     -0.238334      0.725766
O       5.64217      9.64367      8.94402         0.096186     -0.343383      0.794390
O       9.29842      1.77518      0.40090         0.490880      0.385976      1.600974
O       9.51851      1.93196     13.16357         0.091825      0.415772     -0.253367
O       9.61592     13.35307      0.53686        -0.266268     -0.018421     -0.251880
O       9.60892     13.34133     13.14494        -0.314762     -0.274997     -0.617589
O       9.31892      2.05992      4.70557         0.673170     -0.380143      0.363210
O       9.53349     13.17933      4.74443        -0.078751     -0.004361     -0.595428
O       9.40674      1.74197      8.95115         0.680109      0.288177      0.216256
O       9.46329     13.45772      8.84861         0.282478     -0.611440      1.406028
O       9.50074      5.70802      0.38662        -0.063036     -0.145858      1.310925
O       9.49516      5.53158     13.12324        -0.016834      0.342864      0.768587
O       9.42676      5.56503      4.77664        -0.036504      0.239819     -1.294781
O       9.35862      5.96620      8.88411         0.222893     -0.966226      0.770262
O       9.50299      9.45281      0.30452        -0.206769      0.318941     -0.239599
O       9.45441      9.56590     13.03730         0.459584     -0.072426      0.845112
O       9.63002      9.54233      4.69184        -0.889810     -0.163823      0.654973
O       9.40037      9.41242      8.92987         0.262803     -0.005478      0.033860
O       3.73273      2.06487      2.39898         1.197668     -0.287022      0.506356
O       3.74352      1.74670     15.17823         0.793752      0.073463      0.496609
O       3.72181     13.11211      2.65238         1.230728      0.147918     -0.472204
O       3.79751     13.31714     15.47022        -0.448661      0.348051     -0.383744
O       0.04296      1.88546      2.39620        -0.799026     -0.432237      0.601939
O      15.16364      1.98017     15.32701         0.417497      0.154757      0.101082
O       0.02233     13.36207      2.70738        -0.639888      0.004771     -0.449634
O       0.01129     13.22795     15.53895        -0.313690      0.414869     -0.747283
O       3.83680      1.80112      6.93779        -0.444964      0.264827      0.086136
O       3.74209     13.33482      6.81992         0.418056     -0.156402      0.491311
O      15.14315      1.82188      6.97332         0.696077      0.781980     -0.220508
O       0.04909     13.27576      6.82853        -0.525096     -0.069446      0.116040
O       3.73934      1.85551     11.12240         0.588710      0.257893      0.033802
O       3.75976     13.22917     11.26219        -0.684485      0.739998     -0.347693
O      15.17835      1.96101     11.06485        -0.664605      0.318104      0.474580
O       0.01049     13.22869     11.08347        -0.741279      0.023512      0.291252
O       3.73122      5.59326      2.59803         1.508150     -0.232530      0.022031
O       3.80262      5.78678     15.52140        -0.590514     -0.120437     -1.039470
O      15.18650      5.83220      2.58613        -0.175600      0.125476     -0.302477
O      15.07497      5.63473     15.36897         1.086621     -0.321669     -0.220850
O       3.75703      5.70067      6.80172         0.452849     -0.279952      0.138585
O      15.15610      5.62069      6.89601         0.224362      0.354779     -0.201358
O       3.73714      5.80723     11.04045        -0.083830     -0.246370      0.086177
O      15.12105      5.62567     11.05156        -0.470765      0.067611      0.036209
O       3.82476      9.52143      2.52376         0.261150      0.341651     -0.257996
O       3.88446      9.41741     15.51470        -0.878508      0.575134     -0.607133
O      15.18354      9.13867      2.44210         0.807752      0.601261     -0.162028
O       0.00001      9.51957     15.27799        -1.008767      0.154334     -0.167630
O       3.78334      9.56657      6.76202         0.021242     -0.154186      0.019161
O      15.17668      9.44650      6.74778         0.490068     -0.078446      0.494602
O       3.75391      9.35367     11.04552        -0.440513      0.393337     -0.402600
O      15.12977      9.54930     11.08831         0.727618      0.053456     -0.102524
O       7.50939      1.70719      2.71769        -0.121426      0.278147     -0.709111
O       7.59260      2.03067     15.28290        -0.313716     -0.023308     -0.357400
O       7.61261     13.46680      2.59661        -0.527952     -0.183672     -0.230197
O       7.63234     13.21348     15.41509        -0.171131      0.114221     -0.448935
O       7.64318      1.79890      6.94271        -1.149016      0.248422     -0.245665
O       7.57861     13.26080      6.84516         0.695042     -0.041409     -0.060576
O       7.62055      2.02501     11.23121        -0.358271     -0.539010     -0.659935
O       7.62951     13.32192     11.19831        -0.000370     -0.501420     -0.338506
O       7.50477      5.64595      2.71814         1.413543      0.517958     -0.394037
O       7.59920      5.70596     15.27895         0.144054     -0.454916      0.190866
O       7.49562      5.67837      6.88718         0.761594     -0.022055     -0.339728
O       7.54310      5.60752     11.07446        -0.291306      0.119041     -0.007097
O       7.64749      9.43420      2.57991        -0.467348     -0.175595      0.148147
O       7.66080      9.48407     15.28515        -0.308091      0.567433     -0.032344
O       7.56137      9.59803      6.73920         0.474807     -0.027369      0.157663
O       7.61525      9.50709     11.14761        -1.611592      0.759123     -0.351386
O      11.37932      1.94225      2.62106        -0.520882      0.018315      0.078658
O      11.33000      1.74632     15.46850         0.552181      0.321546     -0.304007
O      11.40723     13.29989      2.75086         0.222484     -0.513160     -0.389157
O      11.38602     13.42936     15.30155         1.060247      0.080204      0.251672
O      11.45071      1.86911      6.70805        -0.157273     -0.008033     -0.027297
O      11.43537     13.26480      6.83715         0.176871     -0.281744     -0.013171
O      11.43316      1.94733     11.18886        -1.539261     -0.655651     -0.386894
O      11.42381     13.33537     11.02262        -0.349745      0.274329     -0.065438
O      11.37683      5.51341      2.72987        -1.081549      0.353730     -0.323727
O      11.33693      5.65499     15.42653         0.400230      0.416116     -0.457311
O      11.30662      5.72115      6.81250         0.092269      0.009116      0.091234
O      11.27106      5.90173     11.03670         0.626493     -0.554251     -0.230150
O      11.29969      9.55711      2.54159         1.560982      0.221486     -0.013446
O      11.37406      9.39511     15.39406         0.751099      0.561623     -0.836092
O      11.37284      9.38287      6.82125         0.266948      0.702618      0.037995
O      11.38584      9.43904     11.03049        -0.245954     -0.431771      0.105155
O       1.76138      3.83480      2.49399         0.178100     -0.319198      0.507045
O       2.05474      3.80761     15.19398        -0.596922      0.388346      0.164970
O       1.97354      0.07844      2.63583         0.131196     -0.612536     -0.678944
O       1.86294      0.02386     15.45201        -0.498144     -0.513561     -0.256118
O      13.42534      3.76310      2.56466        -0.222010      0.309183      0.049909
O      13.15398      3.78770     15.38215         0.122255     -0.238956      0.104793
O      13.26132     15.15308      2.80137         0.182728     -0.102813     -0.724494
O      13.45343      0.01380     15.29221        -0.279796     -0.749690      0.278374
O       1.91903      3.77899      6.88828        -0.126505     -0.372619      0.143079
O       1.89223      0.01401      6.94286        -0.116870     -0.869854     -0.058173
O      13.23957      3.75976      6.68896         0.102402      0.377700      0.017380
O      13.41729     15.17032      6.59688        -0.613506     -0.204057      0.512276
O       1.83633      3.88019     11.11847         0.366482     -1.032267      0.270953
O       1.82407      0.00671     11.19643         0.025339     -0.106813     -0.414851
O      13.06011      3.80368     11.15145         0.982555      0.706779     -0.195543
O      13.35022      0.02317     10.97392        -0.060014     -0.458007      0.546969
O       2.13433      7.53622      2.64898        -1.004512      0.186176     -0.596266
O       1.80818      7.66558     15.36738         0.129698     -1.442482      0.101329
O      13.08755      7.59539      2.66412         0.109190     -0.044032     -0.446844
O      13.31538      7.51382     15.32384        -0.337277      1.640375     -0.339853
O       1.98653      7.58066      7.04541        -0.842951     -0.046417     -1.413426
O      13.26770      7.59930      6.83240         0.208754     -0.434394      0.039918
O       1.72500      7.64367     10.99015         0.057656     -0.675205     -0.040849
O      13.33160      7.54097     11.04196        -0.172467      0.164735      0.212511
O       1.83501     11.26182      2.46607        -0.311557      0.040341      0.182250
O       1.82906     11.43114     15.41544         0.729772      0.045491     -0.254233
O      13.54301     11.35321      2.56739        -0.765105     -0.202612     -0.594800
O      13.26121     11.43782     15.39431        -0.134110     -0.859892     -0.415368
O       1.85442     11.39669      6.84178         0.012666     -0.245197     -0.342017
O      13.34547     11.37819      6.81583        -0.362224     -0.627848      0.509512
O       1.92135     11.38150     11.14970        -0.190198     -0.901131     -0.168813
O      13.17783     11.37783     11.03139         0.467458      0.247353     -0.234540
O       5.79233      3.70211      2.55280        -0.569074      0.492989      0.082907
O       5.62323      3.79430     15.22862        -0.077037      0.397068      0.122417
O       5.49128     15.14452      2.58917        -0.029732      0.826768     -0.547706
O       5.87204      0.05379     15.26644        -0.478323     -1.015852      0.321895
O       5.72123      3.77847      6.86014        -0.061435     -0.470968     -0.136609
O       5.72098     15.07540      7.00440        -0.270275      1.676625      0.236969
O       5.57640      3.83998     11.04115        -0.015445     -0.428520      0.179163
O       5.63396     15.13085     11.12772         0.272052      1.550578     -0.117311
O       5.72442      7.58867      2.59161        -0.364090     -0.059196     -0.153093
O       5.76656      7.61008     15.50022        -0.210591      0.830847     -0.374374
O       5.65898      7.62813      6.87809         0.164721      0.349918     -0.643741
O       5.72245      7.54457     11.07003         0.322790      1.055388     -0.259358
O       5.87956     11.43400      2.56263        -0.545570     -0.550216      0.057428
O       5.64290     11.39125     15.26316         0.377440      0.511972      0.361662
O       5.64176     11.46539      6.94926         0.110943     -0.731278     -0.548915
O       5.53233     11.34512     11.30382         0.764672     -1.002558      0.041362
O       9.33394      3.76673      2.53475         0.217694     -0.024980      0.136667
O       9.61467      3.80152     15.30619        -0.487106     -0.888199      0.263980
O       9.54602      0.04661      2.68923         0.387884     -0.755261      0.260077
O       9.30523      0.03507     15.18050         0.172530     -0.979864      0.491707
O       9.49348      3.75214      6.93357        -0.236921      0.497961      0.154252
O       9.63964     15.16406      6.73716        -0.765340      0.019805     -0.104241
O       9.48928      3.81954     10.89693         0.446656      0.355920      0.050248
O       9.48414      0.03134     11.24498         0.113605     -0.114921     -0.898409
O       9.53363      7.57753      2.47939        -0.084655     -0.627567      0.602795
O       9.51417      7.57023     15.17545        -0.133901      0.404646     -0.025589
O       9.33046      7.60800      6.81453         0.208954     -0.338408     -0.390439
O       9.27821      7.64959     11.17773         0.998844     -1.109542     -0.484179
O       9.38139     11.38842      2.54149         0.336345      0.154163      0.027055
O       9.65008     11.46326     15.25247        -0.486441     -1.050728      0.182322
O       9.49275     11.35471      7.01178         0.512413      0.089517     -0.544107
O       9.54395     11.41586     10.97955        -0.126008      0.603621     -0.094248
