  # total energy = -7882.07863968 
CRSYTAL
PRIMVEC
    15.3600000000000000    0.0000000000000000    0.0000000000000000
     0.0000000000000000   15.3600000000000000    0.0000000000000000
     0.0000000000000000    0.0000000000000000    17.440000000000000
PRESSURE
0.739963 0.360667 -1.79753 0.149416 0.512952 -0.031392
PRIMCOORD
320 1
Pb       3.73581      3.84183      4.29285         0.857006     -0.190815      0.333074
Pb       3.81466      3.84060     17.36294         0.038719     -0.553080     -0.442516
Pb       3.81251      0.02625      4.25544         0.431899     -0.127723     -0.032819
Pb       3.75725      0.05856      0.04371         0.458926      0.519925     -0.583254
Pb      15.32762      3.77714      4.36739        -0.128463      0.317790     -0.535559
Pb      15.35752      3.91453     17.39355         0.190461     -0.111962      0.247590
Pb      15.28859     15.27415      4.30032        -0.108291      0.452494     -0.441183
Pb      15.26948     15.29033      0.01868        -0.313188      0.075401     -0.102694
Pb       3.79414      3.75534      8.75782         0.133264     -0.125297     -0.397090
Pb       3.86989     15.32621      8.70269         0.108892      0.028415     -0.400572
Pb       0.00235      3.74331      8.70049         0.198090      0.538959     -0.478277
Pb      15.33409      0.04018      8.65983         0.191250     -0.152291     -0.197127
Pb       3.65038      3.83118     13.02693         0.812433     -0.444009      1.224168
Pb       3.75923     15.24853     13.08409         0.722170      0.592828      0.486023
Pb      15.31716      3.80566     13.04117         0.358228      0.350234      0.172050
Pb       0.04172      0.02508     13.01386        -0.514097     -0.417676      0.140030
Pb       3.82447      7.62684      4.27876         0.005507      0.322855      0.453623
Pb       3.76550      7.65268     17.36890         0.208044     -0.353629      0.283881
Pb      15.35023      7.68404      4.39022         0.289051     -0.144286     -0.736858
Pb      15.19271      7.70912     17.33216         0.354173      0.074323      0.035796
Pb       3.93837      7.61316      8.76994        -0.778968      0.197716      0.009031
Pb       0.06257      7.61496      8.72572         0.039995     -0.234226     -0.420096
Pb       3.76844      7.66014     13.00442         0.205416     -0.044598     -0.322754
Pb       0.04907      7.64358     13.03280        -0.235731      0.195205     -0.322532
Pb       3.75764     11.52320      4.23296         0.074427      0.139585      0.271746
Pb       3.92691     11.49576     17.43148        -0.342684      0.174126     -0.005006
Pb      15.28766     11.56500      4.32713         0.817712     -0.617628     -0.585331
Pb      15.31189     11.54543     17.35984         0.431314     -0.597358      0.175601
Pb       3.77343     11.54631      8.63098         0.456241     -0.021859      0.254937
Pb      15.28521     11.39393      8.64989         0.527615      0.142939     -0.165766
Pb       3.80142     11.54187     13.12727         0.442718     -0.155960     -0.289943
Pb      15.32479     11.51377     13.14781         0.059931      0.011920     -0.206490
Pb       7.69801      3.76438      4.42926        -0.534678      0.355539     -0.551000
Pb       7.63974      3.90805     17.33209         0.028215     -0.375005     -0.171216
Pb       7.72774      0.09712      4.25160        -0.895463     -0.544232      0.672268
Pb       7.71001      0.02429     17.40090        -0.219678      0.335803     -0.173383
Pb       7.72730      3.67111      8.76533        -0.687083      0.771888      0.141780
Pb       7.62381     15.19579      8.63383         0.282117      0.166779     -0.129240
Pb       7.68507      3.81330     13.19743        -0.268472     -0.615103     -0.189859
Pb       7.56920      0.00307     13.12866         0.431573      0.024625     -0.177355
Pb       7.62156      7.62736      4.31015         0.292718     -0.057797     -0.180418
Pb       7.73622      7.64977     17.40821         0.218945      0.312103     -0.256712
Pb       7.55798      7.69714      8.67441         0.453505     -0.087960     -0.241705
Pb       7.52678      7.62968     12.99533         0.242068      0.251491     -0.172933
Pb       7.67200     11.53035      4.34097         0.171448      0.045181     -0.291106
Pb       7.76368     11.50599      0.08035        -0.147134     -0.695518     -0.506721
Pb       7.50665     11.45156      8.64926         0.748821      0.153502     -0.270781
Pb       7.62887     11.39727     13.10208         0.571369      0.135010     -0.308684
Pb      11.44141      3.81507      4.37279         0.263634     -0.016961     -0.346929
Pb      11.61610      3.83242     17.36031        -0.615342      0.239429     -0.056135
Pb      11.38427     15.34620      4.28058         0.387696      0.250171      0.075399
Pb      11.57420     15.33670     17.38477         0.027619     -0.153482     -0.128271
Pb      11.44102      3.82956      8.72727         0.139056      0.066230     -0.060418
Pb      11.51078     15.23304      8.65152        -0.371960      0.249481     -0.282711
Pb      11.55130      3.81490     13.09592        -0.282037     -0.248874      0.019725
Pb      11.58726     15.34270     12.92678        -0.151135     -0.095465      0.467750
Pb      11.41711      7.79073      4.30361         0.252219     -1.096615      0.324128
Pb      11.58185      7.59135     17.40729        -0.431603      0.109633     -0.597975
Pb      11.41680      7.60978      8.72594        -0.105895      0.133524      0.148258
Pb      11.52218      7.72316     12.90432        -0.492695      0.099849      0.456451
Pb      11.52159     11.47196      4.42712        -0.592317      0.096535     -0.779206
Pb      11.53270     11.49730      0.00105         0.015961     -0.213661     -0.366853
Pb      11.54460     11.53031      8.70257        -0.491971     -0.028012     -0.365623
Pb      11.47506     11.44756     12.99390        -0.638780      0.238305     -0.154644
Ti       1.90757      1.93722      2.24360         0.287235      0.519523     -0.753064
Ti       1.80773      1.90899     15.43853         1.683601      1.044916      1.351684
Ti       1.88572     13.47807      2.28648         0.679374     -0.488118     -0.013601
Ti       1.99538     13.44929     15.39783        -0.502439      0.299438     -0.358978
Ti      13.47768      1.87735      2.29286        -0.702707     -0.323989     -0.326657
Ti      13.42313      1.91599     15.37869        -0.096592     -0.901647     -0.117368
Ti      13.36334     13.36452      2.34338         0.609008      1.068425     -1.116556
Ti      13.46911     13.35833     15.36312        -0.320768      0.915592     -0.406007
Ti       1.84221      1.84229      6.61187         1.258514      0.614443      1.140004
Ti       1.89631     13.39402      6.66903         1.105699      0.062864     -0.702328
Ti      13.37545      1.92863      6.65024         0.129984     -0.062076     -1.542905
Ti      13.51503     13.43296      6.57258        -1.324837      0.429321     -0.259998
Ti       1.84919      1.89712     11.03198         1.520485      0.575104     -0.438578
Ti       1.97392     13.46017     11.00641        -0.322203      0.433120      0.959214
Ti      13.44640      1.95103     10.97236        -0.412242     -0.457446      1.506475
Ti      13.49618     13.37143     11.00699        -0.296283      1.226542      2.296289
Ti       1.93660      5.73075      2.32206        -1.137741      0.592205      0.669219
Ti       1.87001      5.79071     15.39081         0.545015     -0.703120     -0.877027
Ti      13.36387      5.73239      2.35480         0.986809     -0.042641     -0.660707
Ti      13.43700      5.67407     15.27048        -0.610438      1.892878      0.258243
Ti       1.97549      5.71332      6.57771        -1.166230     -0.182944      0.664155
Ti      13.45075      5.75325      6.71637         0.007247      0.247744     -1.516354
Ti       1.94342      5.71742     11.02872        -0.553607      0.465692      0.334014
Ti      13.39513      5.75101     11.10402         0.817874      0.020201     -0.636205
Ti       1.99784      9.54943      2.27552        -0.693850      0.143182      2.734897
Ti       2.01816      9.58448     15.35655        -1.477803      0.225731      0.598367
Ti      13.48325      9.51662      2.31152         0.434572      0.308528      0.031618
Ti      13.43329      9.60773     15.30830         0.180544     -1.442432      0.134899
Ti       1.95231      9.53706      6.67212        -0.329898      0.192905     -0.682249
Ti      13.41808      9.55794      6.64158         0.471492     -0.357986      0.341240
Ti       1.87851      9.73565     11.07259         0.334925     -1.158525     -0.222809
Ti      13.39536      9.61173     10.97895         0.445168      0.371074      1.099508
Ti       5.71631      1.97362      2.27768        -0.157757     -0.537843     -0.323097
Ti       5.78508      1.87548     15.34080        -1.933094      1.076662     -0.383197
Ti       5.75944     13.45832      2.25019        -1.236674      0.515354     -0.357240
Ti       5.82122     13.40674     15.47629        -0.820034      0.341821     -0.231702
Ti       5.68669      1.95036      6.65663         0.531936     -0.109838     -0.216147
Ti       5.74595     13.43273      6.55510         0.230371      0.420218      1.050779
Ti       5.73361      1.87686     11.13815        -0.560953      0.164042      0.090297
Ti       5.84932     13.35113     11.10303        -0.790281      0.857398     -0.057148
Ti       5.73861      5.77850      2.28968         0.399321     -0.607949      0.888723
Ti       5.76406      5.74472     15.32279        -0.685887     -0.399099     -0.616163
Ti       5.61713      5.80528      6.76152         2.339230     -1.278121     -1.003875
Ti       5.75808      5.60118     11.08618        -0.399039      0.742723      0.300937
Ti       5.75339      9.61527      2.30913         0.568547      0.110379      0.902297
Ti       5.78378      9.56786     15.40731         0.553949     -0.599075     -0.394552
Ti       5.65432      9.65291      6.52348         0.879359     -0.159465      0.394165
Ti       5.72535      9.57260     10.97217        -0.352757      0.149707      0.547703
Ti       9.54538      1.94331      2.28400         0.663200      0.821533     -1.136633
Ti       9.63756      1.87353     15.40774        -0.148053      0.186872     -1.572087
Ti       9.54975     13.48032      2.23127         0.369512     -0.718540     -0.033558
Ti       9.56412     13.36128     15.40174         1.273960      0.374701     -0.481627
Ti       9.54777      1.87243      6.77843         0.202240     -0.891272     -0.504445
Ti       9.63270     13.32763      6.61346        -0.717036      1.347021     -0.487728
Ti       9.63751      1.89891     11.09853        -0.613926     -0.417549     -1.069830
Ti       9.58234     13.43213     11.03286        -0.369191     -1.529208     -0.320681
Ti       9.61079      5.78441      2.29350        -0.070698     -0.246757     -0.666497
Ti       9.55126      5.78633     15.24981         1.214693      0.257332      0.295123
Ti       9.55474      5.70834      6.71760        -0.295812      1.073800     -0.527464
Ti       9.55930      5.70645     11.12397        -0.279760      1.033261     -0.301757
Ti       9.62526      9.64295      2.36689        -0.202074     -0.334276     -0.563918
Ti       9.64333      9.59068     15.35169        -0.059428     -0.937968     -0.405633
Ti       9.63661      9.56622      6.55265        -1.141427      0.254534     -0.770612
Ti       9.50343      9.55365     10.91865         0.098544      0.394228      1.330265
O       2.04988      1.97527      0.44406        -0.510982     -0.152081      1.015691
O       1.84160      2.18348     13.74029        -0.370693     -0.826380     -1.552074
O       1.95764     13.57538      0.50099        -0.105502     -0.427194      0.574241
O       1.88487     13.55347     13.58559         0.141993     -0.346209      1.324768
O      13.32023      1.73283      0.51803         0.050665      0.773661     -0.220487
O      13.48275      2.05708     13.59064        -0.190688     -0.627449      0.970897
O      13.57458     13.33147      0.52925        -0.471406      0.157704      0.721890
O      13.57709     13.51466     13.57457        -0.166249     -0.323783      0.941977
O       1.81704      1.98045      4.90028         0.015242     -0.357193     -1.414408
O       2.02947     13.29727      4.86293        -0.863842      0.560490      1.106709
O      13.49301      1.91394      4.79436         0.056944     -0.002875      1.640211
O      13.54770     13.50858      4.74668        -0.453647     -0.333720      1.146210
O       1.93699      1.84469      9.23065        -0.259264      0.164429      0.830555
O       1.98839     13.53532      9.24723        -0.220607     -0.244349      0.443063
O      13.47497      1.99677      9.24950        -0.086307     -0.124356     -1.382712
O      13.41444     13.40402      9.28498        -0.040380     -0.150573     -1.019384
O       1.88004      5.74592      0.58490        -0.034864      0.041847     -0.849777
O       1.89236      5.71386     13.55926        -0.165221      0.434225      1.783888
O      13.37783      5.84917      0.49503        -0.131866     -0.616014      1.386054
O      13.49043      5.67467     13.50965        -0.259976      0.264452     -0.090600
O       1.94706      5.76618      4.80095         0.065670     -0.283880      0.828283
O      13.32406      5.76531      4.87680         0.499398     -0.283278      1.864942
O       2.06495      5.69364      9.26723        -0.543652      0.016788     -0.124635
O      13.45816      5.72754      9.30862        -0.226327      0.122437      0.267498
O       1.97725      9.45914      0.60045         0.114193      0.115061     -2.176695
O       1.94268      9.52800     13.58678         0.148529      0.270350      0.041958
O      13.58669      9.57771      0.52983        -0.494616     -0.194562      0.958300
O      13.42326      9.47157     13.54588        -0.065906      0.801662      0.007329
O       2.04234      9.58546      4.90464        -0.519930      0.050112      0.762864
O      13.43975      9.52656      4.87603        -0.079763      0.346004      0.053434
O       1.95705      9.74737      9.29041        -0.511800     -0.119670      0.616314
O      13.56110      9.78875      9.23800        -0.291648     -0.253440     -0.738602
O       5.65989      1.99926      0.48236         0.540020     -0.151851      0.814317
O       5.84910      2.07520     13.53843         0.122229     -1.107906      0.750563
O       5.60945     13.55790      0.45402         0.445973     -0.434183      0.287093
O       5.91280     13.32164     13.68669        -0.245281      0.140751      0.849206
O       5.87172      1.83267      4.87005        -0.090120      0.489267      0.811908
O       5.80139     13.35845      4.83997        -0.332657      0.199961     -0.723943
O       5.53571      1.96158      9.33405         0.779504     -0.294443      1.090236
O       5.83604     13.57705      9.34439        -0.098023     -0.571467     -0.239314
O       5.76664      5.78283      0.54695         0.313010      0.019480      0.038370
O       5.75684      5.77718     13.51793         0.243371     -0.155143      0.781863
O       5.68685      5.71373      4.98628         0.323256      0.207863      0.308791
O       5.51988      5.67825      9.32865         0.225127      0.078765     -0.104538
O       5.90371      9.46122      0.58543        -0.336157      0.085062     -0.825334
O       5.68543      9.64407     13.63518         0.110497     -0.027647      0.374894
O       5.70744      9.67162      4.76135         0.246994      0.010372      0.580719
O       5.77193      9.73171      9.20175        -0.211261     -0.660229      0.233060
O       9.37500      1.95676      0.44830         0.773542      0.052911      1.573574
O       9.80812      1.85205     13.59076        -0.723242     -0.054927      0.755068
O       9.66544     13.49703      0.44241        -0.530694     -0.437502      0.855726
O       9.47441     13.22705     13.63189         0.363563      0.480438      0.844370
O       9.65095      1.89959      4.96229        -0.557127      0.093919      0.377399
O       9.67521     13.43665      4.82575         0.024161     -0.196901     -0.095093
O       9.62521      1.94243      9.22939         0.279301      0.098730      1.310446
O       9.54894     13.27934      9.23318         0.381027      0.452885      0.297606
O       9.64540      5.75034      0.49383        -0.007203     -0.300903      0.386741
O       9.55921      5.98686     13.47650        -0.205049     -0.468808      0.484239
O       9.73921      5.82714      4.93664        -0.713623     -0.765569      1.070341
O       9.63962      5.80289      9.35601         0.367151     -0.187206     -0.750783
O       9.67207      9.57333      0.58262        -0.473834      0.379602      0.117771
O       9.65950      9.64429     13.54381         0.083240     -0.395805      1.059878
O       9.71736      9.64413      4.64710        -0.164306      0.163469      2.194448
O       9.47658      9.56691      9.17429         0.188014      0.100938     -0.840993
O       3.87649      1.89317      2.72248        -0.370180      0.211204      0.151938
O       3.80569      1.97750     15.76728         0.112018      0.260803     -0.003645
O       3.81306     13.49468      2.74698        -0.054528      0.119977     -0.264037
O       3.87619     13.32812     15.66497        -0.072297      0.196879      0.224246
O       0.02665      1.89376      2.46821         0.682603      0.552163      0.655383
O      15.25119      1.82287     15.92087         0.147849      0.346274     -0.378589
O      15.32573     13.40649      2.78255         1.255011      0.049057     -0.324899
O       0.06634     13.34128     15.86141        -0.139808      0.548319     -0.542353
O       3.83949      1.93344      6.95140        -0.192573     -0.236333      0.202415
O       3.80169     13.41081      7.08174         0.755584      0.459320     -0.171227
O       0.00249      1.89851      7.05128        -0.864771     -0.193546      0.349892
O      15.32714     13.51174      7.00919         0.395153     -0.107899      0.033525
O       3.80242      2.02717     11.50518         0.383809     -0.324207     -0.286946
O       3.85305     13.44748     11.50662        -0.026529     -0.235587     -0.095208
O      15.35573      1.91182     11.34205         0.110057     -0.094068      0.153253
O       0.01423     13.60957     11.46155         0.578784     -0.487448     -0.655408
O       3.81718      5.78444      2.67580         1.387638     -0.192620      0.055748
O       3.81958      5.73203     15.82663        -0.046353      0.300776     -0.476747
O       0.01096      5.71855      2.72555        -0.426243      0.039537      0.160282
O      15.31494      5.71574     15.74359         0.502939      0.214529      0.088248
O       3.82020      5.79074      7.08683        -0.886776     -0.391014      0.207306
O       0.05605      5.78001      7.04633        -0.448405     -0.186374      0.087114
O       3.75885      5.57071     11.48810         1.244965      0.402334     -0.266206
O      15.27871      5.79170     11.48324         0.682813     -0.078373     -0.432826
O       3.88257      9.56260      2.75285         0.161059     -0.031340     -0.550258
O       3.87696      9.49160     15.83544         0.206283      0.253764     -0.034569
O       0.12549      9.54945      2.76476        -1.704570      0.197522      0.045212
O      15.35559      9.54510     15.80813         0.713974      0.335091     -0.432321
O       3.78746      9.59037      7.00963         1.259605      0.332079      0.386252
O      15.33262      9.65130      7.01844         0.421095     -0.044010      0.261111
O       3.80643      9.66981     11.44846        -0.101462      0.187988     -0.004802
O      15.33233      9.58716     11.49146         1.210325      0.499110     -0.272022
O       7.70364      1.94409      2.82321         0.368135      0.486232     -0.598595
O       7.61103      1.89011     15.72889         1.447910     -0.133745      0.173406
O       7.59978     13.43867      2.58115         1.305501     -0.206243     -0.005295
O       7.74382     13.50411     15.89987        -1.088179     -0.638053     -0.051782
O       7.63226      1.93803      7.30464         0.773538     -0.432019     -0.995502
O       7.71308     13.32287      6.87059        -0.675041      0.569436      0.713808
O       7.79788      1.83141     11.55292        -0.689439      0.131656     -0.379459
O       7.64858     13.35899     11.47493         0.886679      0.579223      0.109858
O       7.74804      5.67427      2.74356        -1.406349      0.197765      0.112445
O       7.71522      5.71324     15.67807        -0.350140     -0.007040      0.190967
O       7.58194      5.81299      7.30688         1.223092     -0.158561     -0.838141
O       7.66033      5.92883     11.26188        -1.064380     -0.674895      0.542118
O       7.74477      9.73834      2.74051        -0.933406     -0.537678     -0.003081
O       7.70611      9.59706     15.75481         0.160296     -0.152105      0.173695
O       7.65382      9.61677      6.86585         0.023486      0.126227      0.114586
O       7.60357      9.53816     11.36504        -0.229072     -0.127299      0.042426
O      11.58398      1.78271      2.73778        -1.799500      0.478846     -0.253487
O      11.50487      1.80635     15.76919         0.585043      0.734155      0.454498
O      11.48542     13.49817      2.57250         0.184388      0.267162      0.339069
O      11.58141     13.26123     15.81280        -0.526887      0.312201     -0.344323
O      11.50658      1.96902      7.02325         0.242227      0.064421      0.360586
O      11.51965     13.48176      6.98629         1.085636     -0.401030      0.395164
O      11.53879      1.92802     11.44805        -0.007206      0.167018     -0.214780
O      11.48127     13.45652     11.45175         1.085467     -0.794427     -0.287650
O      11.50430      5.85436      2.75615         0.611032     -0.584868     -0.289879
O      11.56299      5.82147     15.63051        -0.573961     -0.649463      0.250129
O      11.44780      5.91363      7.23445         0.615151     -1.251816     -0.550533
O      11.46357      5.76082     11.51378         1.116058      0.131334     -0.293274
O      11.50900      9.46575      2.68432         1.297325      0.937744     -0.194368
O      11.56055      9.63629     15.80785        -0.320477     -0.182192     -0.124084
O      11.53448      9.65847      7.00400        -0.058443     -0.162307      0.159132
O      11.49458      9.70226     11.21950         0.330955     -0.246699      0.235637
O       2.05545      3.82108      2.77833        -0.960016     -0.096217     -0.512973
O       1.81130      3.84186     15.89459         0.005744      1.029547     -0.112380
O       2.02891      0.10873      2.65312        -0.757347     -1.611338      0.255319
O       2.04504      0.08087     15.70653        -0.665818     -2.133471      0.115962
O      13.44884      3.78629      2.64507        -0.342754      0.976818      0.093546
O      13.35634      3.82548     15.79352         0.346508     -0.586092     -0.018191
O      13.59453      0.00224      2.60405        -0.261947     -1.090714      0.589529
O      13.35747     15.26534     15.85394         0.605342      0.127736     -0.477813
O       1.89208      3.78499      7.00040         0.131279      0.709244      0.132289
O       1.98419     15.33168      7.11437        -0.587576     -0.187439     -0.373198
O      13.49039      3.83509      7.08769        -0.280437      0.310771     -0.034011
O      13.38836      0.03994      7.05022         0.289877     -0.507357      0.118606
O       1.86300      3.83265     11.54325        -0.685488     -0.768769     -0.972399
O       2.08858      0.06395     11.56818        -1.164603     -0.347475     -0.787931
O      13.43992      3.82917     11.49740        -0.255801      0.148187     -0.602587
O      13.45367      0.05294     11.43632        -0.148808     -0.285356     -0.330714
O       2.02098      7.66411      2.84318        -0.592272     -0.272116     -0.643502
O       1.97868      7.70427     15.87655        -0.608317     -0.880705     -0.647391
O      13.44656      7.66109      2.77975         0.434474      0.165072     -0.358494
O      13.45533      7.67052     15.66429         0.044042     -0.390756      0.380605
O       1.97386      7.64976      7.09350        -0.409135      0.079732      0.050390
O      13.55776      7.65044      7.12297        -0.571974      0.538058      0.036194
O       2.02745      7.60523     11.35921        -0.562796      1.131002      0.149261
O      13.51629      7.80203     11.38912        -0.850976     -1.505109     -0.250022
O       2.00452     11.52575      2.72360        -0.540106      0.368979     -0.696999
O       2.00591     11.46669     15.83492        -0.062210      0.137209     -0.428014
O      13.42954     11.50961      2.66891        -0.111853     -0.928668      0.510211
O      13.47920     11.44190     15.76459         0.339336      0.995162     -0.043252
O       2.02569     11.52671      7.18331        -1.295490      0.015485     -0.690019
O      13.46612     11.56803      7.03111        -0.181897     -0.059408     -0.339171
O       1.91981     11.62388     11.64369        -0.475494     -0.576912     -0.994251
O      13.55090     11.55896     11.59238        -0.299279     -0.217336     -0.865800
O       5.74160      3.79794      2.76566         0.214326      1.232567     -0.081128
O       5.74585      3.82063     15.77388         0.457453      0.865826      0.061026
O       5.77560      0.03945      2.66597         0.132233     -0.295064      0.151931
O       5.65053      0.04960     15.77519         0.591310     -1.701865     -0.222967
O       5.83572      3.81913      7.15374        -0.611520      0.216680     -0.202806
O       5.86656     15.35040      7.07114        -0.638677     -0.326741     -0.103079
O       5.90595      3.76501     11.64341        -0.119886      0.703992     -1.308310
O       5.78205     15.34131     11.58048        -0.159627      0.240655     -0.162438
O       5.80109      7.68558      2.82625         0.243316     -0.639912     -0.559205
O       5.91655      7.60715     15.63549        -0.571295      0.460961      0.569097
O       5.68520      7.71731      7.08779         0.082499      0.467400      0.031000
O       5.57732      7.62400     11.44671         0.240840      0.441580     -0.495200
O       5.68094     11.54262      2.49003         0.193671     -0.015310      0.247144
O       5.74716     11.42807     15.96315         0.529065      1.014620     -0.291251
O       5.73666     11.56077      7.09770        -0.389749     -0.703089     -0.473316
O       5.83405     11.49026     11.46005        -0.713384     -0.394043     -0.176034
O       9.67821      3.89614      2.78807         0.022735     -1.743106     -0.210986
O       9.59543      3.81870     15.54578         0.249833      0.435246      0.583134
O       9.48260      0.02390      2.70363         0.603483      0.099857     -0.408323
O       9.65218     15.33464     15.76320        -0.329597     -0.556417      0.037532
O       9.58810      3.82164      7.11289        -0.060731      0.605291     -0.058835
O       9.63837     15.33660      7.01558        -0.286894      0.156336      0.494092
O       9.54066      3.85345     11.53664         0.261178     -0.668905     -0.295818
O       9.64614     15.24556     11.35455        -0.141089      1.586084      0.246888
O       9.55838      7.62113      2.64493        -0.291273      1.173704      0.426802
O       9.66659      7.63783     15.91605        -0.440025      0.384570     -0.747622
O       9.60220      7.73653      6.88030        -0.106406     -0.165170      0.712109
O       9.52389      7.69673     11.35622         0.863210      0.482316      0.184956
O       9.65434     11.59676      2.72386         0.099106      0.090926     -0.317918
O       9.59754     11.40584     15.81578        -0.217674      1.403536      0.415462
O       9.60720     11.52556      6.94585         0.541085     -1.464850      0.111997
O       9.53427     11.45357     11.46393         0.158657      0.142772     -0.213461
