  # total energy = -7875.67810853 
CRSYTAL
PRIMVEC
    15.6000000000000000    0.0000000000000000    0.0000000000000000
     0.0000000000000000   15.6000000000000000    0.0000000000000000
     0.0000000000000000    0.0000000000000000    17.640000000000000
PRESSURE
-2.71072 -2.31866 -8.5683 0.202187 -0.359701 0.033867
PRIMCOORD
320 1
Pb       3.75750      3.74736      4.36741         0.491074      0.338747      0.741570
Pb       3.89195      3.92329     17.56466         0.035853      0.053025      0.903705
Pb       3.88533     15.53773      4.28885        -0.295271     -0.217341      0.729260
Pb       3.79873     15.55786     17.49361        -0.005881     -0.075117      1.147645
Pb       0.05523      3.88770      4.35981        -0.487418      0.105551      0.812829
Pb      15.58749      3.96918     17.61788         0.198981     -0.219974      0.517320
Pb      15.52759     15.52359      4.26474         0.461816      0.243000      1.020712
Pb      15.47497      0.04060     17.52008         0.363821     -0.364360      0.683969
Pb       3.81325      3.95492      8.76062         0.401137     -0.129724      0.990046
Pb       3.82029      0.05891      8.68448         0.136863     -0.253705      1.029231
Pb      15.56651      3.92799      8.65081        -0.365454      0.179579      2.109266
Pb       0.01159     15.59070      8.72867        -0.159331      0.056780      1.093672
Pb       3.92337      3.62001     13.21448        -0.211820      0.847769      0.572712
Pb       3.80264     15.51064     13.13436        -0.012857      0.127800      1.208671
Pb      15.58980      3.76270     13.14140         0.206554      0.451456      0.799559
Pb      15.58958      0.13518     13.10043        -0.144524     -0.542279      1.001753
Pb       3.88457      7.82104      4.38541         0.062198     -0.213220      0.694245
Pb       3.95712      7.81867     17.56307        -0.131716     -0.037113      0.631274
Pb       0.04092      8.00129      4.40911         0.202663     -1.032760      0.383947
Pb       0.05004      7.86955     17.49904         0.090828     -0.293137      0.927137
Pb       3.91648      7.91942      8.82671         0.020105     -0.441727      0.580891
Pb      15.55591      7.81526      8.83265        -0.042578     -0.370284      0.938878
Pb       3.91197      7.78555     13.08644        -0.111739     -0.209778      1.234899
Pb       0.07921      7.90342     13.15487        -0.111692     -0.894309      0.680020
Pb       3.91269     11.63427      4.34391        -0.168887      0.519801      0.763773
Pb       3.94513     11.62717     17.52685        -0.023414      0.422557      1.432123
Pb      15.50400     11.52104      4.25282         0.425767      0.676805      0.800733
Pb      15.54554     11.62745     17.46712         0.156697      0.414524      0.960801
Pb       3.83479     11.56350      8.70571         0.210560      0.883808      1.679869
Pb      15.51242     11.78014      8.77554         0.185270     -0.143941      0.938820
Pb       3.83412     11.77323     13.11723         0.492243     -0.006632      1.346057
Pb      15.50579     11.61767     13.12245         0.105082      0.630551      1.102723
Pb       7.88154      3.67001      4.49227        -0.434572      0.541917      0.539815
Pb       7.78306      3.82624     17.52421        -0.137811     -0.142474      1.172568
Pb       7.69523     15.45188      4.28619         0.164739      0.268117      1.273305
Pb       7.75810     15.58576     17.61542        -0.129423     -0.233273      0.371900
Pb       7.68092      3.91286      8.71032        -0.033325      0.208503      1.436578
Pb       7.82632     15.58173      8.65790        -0.206154      0.005819      1.663083
Pb       8.05949      3.97336     13.05605        -0.915071     -0.294444      0.834003
Pb       7.79515      0.03507     13.21041         0.407985     -0.031643      0.828475
Pb       7.95444      7.75581      4.34816        -0.293019      0.141802      1.289579
Pb       7.82480      7.91467     17.62919        -0.381795     -0.233361      0.754672
Pb       7.73554      7.83089      8.70330         0.111203     -0.220871      0.889138
Pb       7.75899      7.94313     13.05579         0.041229     -0.601288      0.924861
Pb       7.86894     11.72290      4.38475        -0.273990     -0.350439      0.592126
Pb       7.77734     11.71557      0.01558        -0.158272     -0.034308      0.218371
Pb       7.85047     11.71511      8.94682        -0.180609     -0.093386     -0.106949
Pb       7.79781     11.78704     13.17335        -0.342307     -0.338220      0.874304
Pb      11.64654      3.88377      4.42191         0.516575      0.138550      0.949823
Pb      11.88542      3.82987     17.57981        -0.982504      0.006518      1.131462
Pb      11.50480     15.40220      4.39583         0.315794      0.682027      0.557720
Pb      11.45659     15.47894     17.59547         0.640129      0.126389      0.659979
Pb      11.52746      3.91333      8.75094         0.511481      0.118082      1.143335
Pb      11.83015      0.07172      8.66021        -0.374417      0.054347      1.694208
Pb      11.81158      3.92797     13.17296        -0.591160     -0.470023      0.536618
Pb      11.69032     15.55451     13.13980        -0.025644      0.210111      0.488547
Pb      11.77934      7.67342      4.22998        -0.430461     -0.296172      1.060770
Pb      11.71850      7.70607     17.47193        -0.356455      0.575714      1.529695
Pb      11.56878      7.79554      8.66386         0.100815     -0.080912      1.291897
Pb      11.76160      7.71424     13.20754        -0.272499      0.255413     -0.009907
Pb      11.68305     11.65940      4.21421        -0.091339     -0.075398      0.700654
Pb      11.84071     11.54155     17.41464        -0.872287      0.551200      1.320964
Pb      11.74055     11.60532      8.55667         0.035835     -0.123827      1.961324
Pb      11.60167     11.60839     12.96010         0.388228      0.302193      1.922920
Ti       1.87562      1.88300      2.45799         0.823430      0.149577     -2.439113
Ti       1.89221      1.99134     15.76468        -0.415151     -0.630225     -2.535794
Ti       1.91364     13.55003      2.45755         0.737167      0.718275     -2.475751
Ti       1.93559     13.60790     15.76659        -0.063540      0.669560     -3.071137
Ti      13.60637      1.86404      2.51432        -0.619339      0.985059     -1.703538
Ti      13.49541      1.89985     15.75356         0.666252     -0.974328     -2.854617
Ti      13.68673     13.63496      2.44705        -0.331424     -0.561052     -2.461192
Ti      13.63153     13.62281     15.62443        -0.239740      0.710029     -1.947603
Ti       1.91004      1.99517      6.86214        -0.081361     -0.710028     -1.558751
Ti       1.90121     13.64145      6.87105         0.680842      0.121931     -1.962489
Ti      13.64884      1.97466      6.86592        -0.351475      0.914080     -2.182902
Ti      13.63715     13.63384      6.82938         0.534381     -0.156542     -2.232605
Ti       1.93284      1.93691     11.19250        -0.269343      0.006261     -0.913129
Ti       1.88940     13.61996     11.25955        -0.873635      0.606940     -1.479947
Ti      13.56376      1.98007     11.25709         0.252644     -1.049819     -2.292321
Ti      13.63429     13.62437     11.32799        -0.226004      0.541683     -2.349709
Ti       1.89836      5.83670      2.45997         0.469185      0.694484     -2.599905
Ti       1.91085      5.87350     15.71845         0.578985      0.199858     -2.711198
Ti      13.71559      5.72956      2.43477        -1.112575      0.321717     -1.314813
Ti      13.59146      5.80860     15.68893         0.772314     -0.202598     -1.900233
Ti       1.91297      5.89056      6.95064        -0.383177      0.478273     -1.536563
Ti      13.60085      5.84825      6.92712        -0.496066     -0.239075     -2.379631
Ti       1.94767      5.80644     11.37393        -0.772339      0.121912     -2.346505
Ti      13.66950      5.83592     11.33280         0.408802      0.061803     -1.482744
Ti       1.99911      9.73659      2.40593        -0.166125      0.386940     -2.065841
Ti       1.96671      9.77565     15.64339         0.292447     -0.046430     -1.707283
Ti      13.64905      9.65751      2.36631        -0.566630      0.025864     -2.368893
Ti      13.63665      9.67442     15.60942         0.031634      0.343769     -2.328425
Ti       1.87593      9.77988      6.96565         0.039778     -0.129427     -2.243858
Ti      13.67137      9.68915      6.84184        -0.003390     -0.674610     -0.559783
Ti       1.91462      9.78453     11.31059         0.282173     -0.955966     -2.709578
Ti      13.62788      9.70094     11.26241        -0.364605     -0.025190     -1.850850
Ti       5.87085      1.92149      2.53344        -0.635603      0.067262     -1.837641
Ti       5.76226      1.97356     15.63542         0.790564     -0.793363     -1.914625
Ti       5.85706     13.57765      2.45945        -0.661085     -0.047993     -2.474027
Ti       5.79742     13.69279     15.73228         0.195023     -0.889627     -2.374347
Ti       5.79515      1.89857      6.92061         0.162062      0.741966     -1.771863
Ti       5.81887     13.60150      6.97716        -0.172996     -0.258832     -2.330759
Ti       5.86633      1.95543     11.32733         0.314951      0.021857     -3.228503
Ti       5.86623     13.71532     11.29241        -0.065005     -0.923562     -1.785860
Ti       5.76535      5.77491      2.60994         0.544760     -0.025433     -1.997073
Ti       5.82883      5.86353     15.72983        -0.826136      0.371572     -2.481582
Ti       5.70387      5.83290      6.85683         0.905004      0.301321     -1.877365
Ti       5.76773      5.82027     11.27074         0.798123     -0.416756     -1.509981
Ti       5.85874      9.69917      2.59796         0.413436      0.447562     -2.381800
Ti       5.86641      9.77370     15.70552        -0.173387      0.419345     -2.084177
Ti       5.79619      9.78460      6.81704         1.167575     -0.491440     -1.337119
Ti       5.79768      9.77126     11.30442        -0.677362      0.713607     -2.725215
Ti       9.77733      1.88018      2.53503        -0.426173      0.214376     -1.699447
Ti       9.67049      1.93678     15.65807         0.157750     -0.754034     -2.721171
Ti       9.73303     13.59061      2.45313        -0.400601      0.694572     -2.649787
Ti       9.71911     13.58400     15.70462        -0.567188      0.041325     -1.864569
Ti       9.71477      1.95058      6.91796         0.221361      0.407997     -2.062737
Ti       9.80919     13.65243      6.92533        -1.317514     -0.390619     -1.424578
Ti       9.72999      1.90989     11.24729         0.661654      0.111229     -1.846645
Ti       9.71129     13.62763     11.25434         0.259448      0.750583     -2.397408
Ti       9.66551      5.72100      2.48282         0.255554      0.627106     -1.648654
Ti       9.64737      5.82020     15.71048         0.113630     -0.140725     -1.296795
Ti       9.64599      5.84425      6.91186         0.227582      0.402802     -2.420481
Ti       9.76566      5.86067     11.27019        -0.462058      0.283433     -2.538953
Ti       9.72456      9.70420      2.43590        -0.431318     -0.203251     -1.682914
Ti       9.72824      9.71624     15.72053        -0.553611      1.186212     -2.863603
Ti       9.68623      9.78328      6.84154        -0.441433     -0.820985     -2.737139
Ti       9.71751      9.72616     11.24849         0.116694     -0.455592     -2.425997
O       1.95524      1.99939      0.58286        -0.244020     -0.269180      1.736475
O       1.89256      1.94704     13.84094         0.122114      0.312960      1.944392
O       1.95533     13.72081      0.60197        -0.213435     -0.537568      1.507261
O       1.97128     13.61149     13.85666        -0.009135      0.011658      1.820148
O      13.54444      1.93571      0.66056         0.079185      0.230042      1.267983
O      13.59615      1.82806     13.89114        -0.090274      0.412280      1.374133
O      13.69405     13.54707      0.64045        -0.130977      0.220478      1.501676
O      13.56866     13.64340     13.81629         0.041414      0.195521      1.459195
O       1.86344      1.93794      5.02686        -0.029073      0.312256      1.190874
O       2.00490     13.65853      5.05983        -0.464891      0.032460      1.051140
O      13.61610      2.02512      5.01614         0.380245     -0.331528      1.833325
O      13.58225     13.58237      4.97579         0.213249      0.230348      1.582964
O       1.91172      1.89100      9.41481         0.280021      0.141657      0.589756
O       1.76202     13.67239      9.43858         0.385807     -0.192502      1.743098
O      13.58547      1.85035      9.42664        -0.103975      0.261667      1.245336
O      13.62622     13.58665      9.47865         0.152331      0.111737      0.764699
O       1.82543      5.89728      0.55949         0.199267     -0.008078      1.872967
O       1.96723      5.88496     13.84521        -0.256780     -0.194602      2.077121
O      13.56238      5.72960      0.54715         0.270293      0.078114      1.579792
O      13.55216      5.70940     13.84185        -0.223403      0.499126      1.933231
O       1.85770      5.84958      5.15365         0.177871      0.112125      1.081958
O      13.53211      5.80252      5.06951         0.457603      0.392021      1.718169
O       1.87920      5.83845      9.50627         0.233071     -0.307628      1.437241
O      13.71331      5.82674      9.58070        -0.267219      0.074622      0.285638
O       1.88380      9.80111      0.58650         0.146478     -0.365942      0.926371
O       1.86923      9.81222     13.82425         0.269979     -0.220055      1.116071
O      13.53987      9.67066      0.49531         0.501012      0.036969      1.724666
O      13.68462      9.71153     13.77234        -0.262897     -0.170555      1.592892
O       2.02647      9.74695      5.09326        -0.829353      0.047045      1.571389
O      13.85777      9.57379      5.05544        -0.614993      0.535524      0.683496
O       1.87154      9.86485      9.42882         0.307311     -0.392882      1.512149
O      13.60125      9.75589      9.44975         0.288483      0.089541      1.084407
O       5.86972      1.99754      0.73065        -0.017445     -0.146639      1.170434
O       5.81833      1.91346     13.79559        -0.140590      0.253286      1.388758
O       5.82031     13.62248      0.62052         0.034321     -0.130316      1.776116
O       5.67751     13.67744     13.86958         0.453202     -0.049511      1.113523
O       5.81993      1.97611      5.09339        -0.046931     -0.480814      1.396703
O       5.86287     13.57204      5.10573        -0.082316      0.181629      1.972026
O       5.87093      1.90906      9.40507        -0.179357      0.078351      2.161186
O       5.87365     13.59259      9.44822        -0.009728      0.451944      1.542435
O       5.80520      5.75369      0.71069        -0.135744      0.012883      2.445696
O       5.72138      5.96572     13.92579         0.468555     -0.274966      1.220439
O       5.57647      5.90849      5.04330         0.325827     -0.312935      1.179246
O       5.82619      5.80490      9.46178        -0.367953      0.154628      1.533430
O       5.80818      9.77589      0.72485         0.251222     -0.356835      1.462134
O       5.71015      9.80193     13.89413         0.754695     -0.232903      1.000291
O       5.78817      9.72821      4.94646        -0.132348      0.388544      2.087732
O       5.69371      9.79700      9.40696         0.283907     -0.148251      1.777744
O       9.67030      1.95658      0.72398         0.300227     -0.345334      1.137212
O       9.63876      1.83344     13.75991         0.304926      0.358697      2.061025
O       9.59061     13.78082      0.62762         0.603543     -0.561439      1.218037
O       9.63411     13.69247     13.88214         0.220927     -0.530372      1.249474
O       9.72188      1.91475      5.03553        -0.238794      0.069903      2.063174
O       9.73869     13.57362      5.06509         0.392207      0.298720      1.379312
O       9.81164      1.95863      9.40585        -0.192038     -0.307379      1.126162
O       9.59832     13.69913      9.39455         0.503781     -0.507524      1.589391
O       9.62203      5.81953      0.65054         0.055689     -0.324862      1.393836
O       9.73696      5.83196     13.89971        -0.209187      0.064636      1.490494
O       9.76280      5.81428      5.07804        -0.122206      0.112611      1.405229
O       9.70194      5.99159      9.45949         0.291988     -0.471728      0.942270
O       9.59794      9.72646      0.58946         0.420584     -0.263240      1.585958
O       9.68680      9.79955     13.84547        -0.073878     -0.493252      1.203192
O       9.61208      9.72640      4.92685         0.464422      0.463980      2.323167
O       9.67205      9.75296      9.39247         0.068294      0.039378      1.655772
O       3.81699      1.88926      2.86171        -0.125940     -0.015301     -0.066718
O       3.88370      1.97661     15.96728        -0.249740     -0.122119      0.241333
O       3.81502     13.61551      2.85397         0.536527     -0.064049     -0.102799
O       3.89024     13.59294     16.02418        -1.032305      0.117479      0.471185
O      15.52069      2.02721      2.85805         0.502323     -0.370863     -0.245652
O       0.03913      1.92544     16.05770        -0.732675      0.134364      0.165945
O       0.00330     13.57446      2.79073        -0.661243      0.287865      0.376928
O      15.58113     13.70789     15.98942        -0.879846     -0.431342      0.238275
O       3.85181      2.00251      7.24110        -0.004344     -0.288254     -0.083137
O       3.80463     13.55952      7.32683         1.041755      0.491540     -0.337323
O       0.02703      1.96608      7.34716        -0.704754     -0.078100     -1.018111
O      15.57230     13.63739      7.21317        -0.909812      0.281408     -0.187597
O       3.93755      1.92991     11.54834        -0.588532     -0.004492      0.159458
O       3.77493     13.68778     11.70315         0.543204     -0.151343     -1.001540
O      15.59894      1.98907     11.58520        -0.508826     -0.156558      0.030657
O      15.51124     13.65253     11.63761         1.180165     -0.303757      0.161007
O       3.82708      5.89223      2.85648         0.431759     -0.062461     -0.100206
O       3.86446      5.86511     16.12219        -0.204107     -0.115309      0.035540
O       0.06590      5.79669      2.83799        -1.418444      0.320989     -0.059984
O      15.49131      5.84853     16.10127         0.150657      0.190668     -0.429337
O       3.85865      5.90405      7.31840        -0.657312     -0.097886      0.003796
O      15.51076      5.86191      7.36493         0.501202     -0.018063     -0.643082
O       3.85327      5.82648     11.68420         0.659746     -0.183853     -0.308244
O      15.53510      5.87756     11.75465         0.576663     -0.438845      0.041681
O       3.88511      9.79813      2.82824         0.068850     -0.153912     -0.143198
O       3.92837      9.80618     16.07850        -0.888097     -0.490754     -0.222584
O      15.55540      9.67161      2.72161        -0.194800      0.465336      0.149461
O      15.57735      9.71706     15.96920        -0.199745      0.078819      0.050509
O       3.83824      9.74651      7.27690         0.585403     -0.228746     -0.536738
O       0.01161      9.68193      7.25075        -1.023242      0.325752     -0.137227
O       3.89110      9.71832     11.64080        -0.779769      0.425382     -0.171927
O      15.56328      9.69175     11.66542         0.313679      0.480699     -0.367932
O       7.75652      1.86128      2.95432         0.140442      0.252835     -0.294897
O       7.79275      1.83244     16.04406        -0.654764      0.260501     -0.095605
O       7.82679     13.62876      2.79967        -0.602381     -0.260203      0.189716
O       7.70100     13.62451     16.09185         1.052605     -0.060102     -0.096285
O       7.73168      2.00323      7.33841         0.720605     -0.437216     -0.990197
O       7.85844     13.62137      7.34623        -0.423557     -0.013848     -0.756229
O       7.89106      1.94637     11.61584        -1.082540      0.110772     -0.004504
O       7.76734     13.62921     11.66507        -0.106401     -0.085968     -0.130688
O       7.76277      5.78618      3.09444        -0.203154     -0.610496     -1.205898
O       7.66598      5.75526     16.16730         1.656563      0.409501     -0.647464
O       7.73278      5.80197      7.25397         0.130577      0.366224     -0.310880
O       7.83083      5.80926     11.61640        -0.527303      0.339342      0.254726
O       7.84192      9.78377      2.89606        -0.464390     -0.222239     -0.396832
O       7.79315      9.84785     16.09468        -0.659074     -0.618286     -0.104627
O       7.76488      9.77034      7.25998        -0.286203      0.190544     -0.397225
O       7.65966      9.82268     11.59016         1.408459     -0.251321      0.186865
O      11.62007      1.84705      2.98332         0.901988     -0.012858     -0.596274
O      11.63651      1.90721     16.04146        -0.212262      0.231144      0.144155
O      11.70001     13.65955      2.82800         0.167570     -0.240178     -0.189537
O      11.63489     13.56621     16.09812         0.338714      0.223697     -0.220360
O      11.67348      2.10563      7.29609        -0.199499     -1.046145     -0.685994
O      11.75750     13.58785      7.29810        -0.486223      0.424604     -0.711628
O      11.68748      1.97796     11.67152        -0.214951     -0.686797     -0.038070
O      11.64433     13.56251     11.59605        -0.544600      0.419389      0.050114
O      11.71920      5.71930      2.95008        -0.197768      0.778489     -0.986902
O      11.59520      5.86543     16.12797         0.254198     -0.581481     -0.803255
O      11.65525      5.85666      7.32339        -0.196045      0.051346     -0.236555
O      11.66032      5.83947     11.72699         0.339908      0.468360      0.030248
O      11.59762      9.77833      2.77336         1.325626     -0.458957     -0.116730
O      11.66663      9.69158     15.96111         0.628780     -0.139452      0.014038
O      11.67419      9.58869      7.11731         0.231424      1.123976     -0.246496
O      11.68725      9.75628     11.53468        -0.450246     -0.469567      0.223958
O       1.91860      3.97190      2.79810         0.166922     -0.898243      0.053159
O       1.87749      3.98395     16.14360         0.204678     -0.710901     -0.495002
O       1.87649      0.01408      2.78119        -0.327073     -0.117389      0.200545
O       1.88424     15.56955     16.05736         0.517867      0.528142      0.062448
O      13.58129      3.92248      2.85234         0.457120     -0.581943     -0.276627
O      13.65997      3.79769     16.03479        -0.363284      1.236486      0.084043
O      13.67998      0.01176      2.72724         0.032507     -0.986384      0.318071
O      13.49760      0.00151     16.10378         0.550758     -0.736232     -0.032571
O       1.92590      3.89508      7.31945         0.029597      0.265367     -0.645990
O       1.92040      0.00683      7.25058         0.043281      0.205216     -0.209075
O      13.55717      3.90559      7.26374         0.612501     -0.072602      0.005737
O      13.62434      0.05663      7.17127         0.086663     -0.838605     -0.328106
O       1.85736      3.86848     11.70354         0.662874     -0.219117     -0.299126
O       1.84047      0.02262     11.60511         0.434003     -0.431744     -0.196893
O      13.54359      3.86245     11.58938         0.470763      0.194146      0.424568
O      13.62470      0.00349     11.62356        -0.255164      0.047747      0.165169
O       1.90936      7.92619      2.82169         0.209176     -1.343647      0.021730
O       1.96725      7.85195     15.95604        -0.284066     -0.140318      0.449384
O      13.69026      7.74704      2.76553        -0.353229      0.154801     -0.105465
O      13.59292      7.78653     15.98246        -0.010686     -0.615924     -0.207293
O       1.82202      7.79900      7.34070         0.724354      0.133673     -0.289403
O      13.59131      7.76000      7.36441         0.498780      0.631585     -0.585695
O       1.95804      7.75876     11.57065        -0.290525      0.743569      0.465936
O      13.70129      7.80990     11.63551        -0.760045      0.054753      0.350268
O       1.89013     11.67572      2.83785        -0.055857     -0.189876     -0.046372
O       1.87522     11.69258     16.10291         0.131467     -0.263916     -0.300825
O      13.67185     11.59928      2.72315        -0.357004      0.161096      0.348324
O      13.62295     11.68817     15.91550         0.254663     -0.468973      0.163468
O       1.85521     11.73858      7.31004        -0.012077     -0.787386     -0.420032
O      13.67968     11.66381      7.18962        -0.214313     -0.178809     -0.460333
O       1.87989     11.60155     11.68108         0.016172      1.536612     -0.410315
O      13.60672     11.73978     11.69533         0.332362     -1.236964     -0.335572
O       5.72547      3.76137      3.04391         0.433660      1.338284     -0.704787
O       5.78773      3.82462     16.01581         0.142527      0.255031      0.024253
O       5.82237     15.46697      2.83632        -0.035905      0.953996      0.198455
O       5.76958     15.51905     16.11188         0.079147      1.619413     -0.140476
O       5.82219      3.93625      7.27033        -0.508624     -0.466065     -0.237443
O       5.81182     15.57657      7.23121        -0.104907     -0.244303     -0.092443
O       5.84565      3.89512     11.64401         0.035308     -0.135421      0.141395
O       5.90776      0.03643     11.77762        -0.492981     -0.484358     -0.884776
O       5.86147      7.83331      2.96509        -0.160968     -0.876038     -0.609573
O       5.83277      7.80682     16.10513         0.153639      0.196088      0.072825
O       5.89386      7.76459      7.25867        -0.884707      0.966089     -0.275777
O       5.81971      7.83967     11.59047         0.038343     -0.570452      0.069457
O       5.87335     11.71526      2.88649        -0.087027     -0.277567      0.051548
O       5.79466     11.70081     16.16039         0.480142     -0.340695     -0.394427
O       5.86793     11.66597      7.27586        -0.326022     -0.049367     -0.305594
O       5.85217     11.77114     11.70933        -0.540010      0.038479     -0.325322
O       9.80965      3.83827      2.91662        -0.877973     -0.092046     -0.307981
O       9.68404      3.78419     16.00197        -0.019737      1.473249     -0.058230
O       9.67915     15.53117      2.83994         0.351975      0.158301      0.352317
O       9.73914     15.54872     16.07052        -0.240816      0.084224     -0.051295
O       9.67228      3.94172      7.22468         0.095492     -0.766593      0.064671
O       9.80609      0.02981      7.21082        -0.045222     -0.323888     -0.319629
O       9.82775      3.88709     11.50523        -0.230278      0.068643      0.506845
O       9.65942     15.49939     11.64374         0.553461      0.544871     -0.240703
O       9.73689      7.68249      2.83104         0.077414      0.608452     -0.386627
O       9.63330      7.85438     16.08164         0.125366     -1.785706     -0.154531
O       9.63985      7.82475      7.21090         0.075575      0.010117     -0.094511
O       9.67983      7.79929     11.59986         0.242530      0.634023      0.485725
O       9.74516     11.72673      2.75629         0.106813     -0.572134      0.202684
O       9.72973     11.61512     16.08485         0.051389      1.120400      0.057428
O       9.74323     11.67715      7.22774         0.194813      0.280220     -0.167736
O       9.71547     11.61823     11.59106        -0.561861      0.683038     -0.140121
