  # total energy = -7881.07749834 
CRSYTAL
PRIMVEC
    15.3600000000000000    0.0000000000000000    0.0000000000000000
     0.0000000000000000   15.3600000000000000    0.0000000000000000
     0.0000000000000000    0.0000000000000000    17.440000000000000
PRESSURE
0.081899 0.724527 -3.65525 -0.033654 -0.269167 0.034009
PRIMCOORD
320 1
Pb       3.92144      3.81389      4.40098        -0.334077     -0.004337     -0.566997
Pb       3.91131      3.81145      0.02210        -0.385508      0.118683     -0.359915
Pb       3.76963      0.02404      4.33984         0.338677     -0.031102     -0.487747
Pb       3.74725     15.29814     17.35228        -0.189063      0.062611      0.229855
Pb       0.08027      3.77029      4.37163        -0.620419      0.236268     -0.573416
Pb       0.07330      3.91437      0.00662         0.072384     -0.214606     -0.111360
Pb       0.10912      0.03691      4.35889        -0.453758     -0.316890     -0.436952
Pb      15.23488      0.03616     17.37819         0.094257     -0.337422     -0.244276
Pb       3.75175      3.77131      8.72232        -0.289596      0.235068     -0.389243
Pb       3.80692     15.33712      8.61612        -0.097196     -0.074790      0.171276
Pb      15.10991      3.96831      8.63760         0.292760      0.030013      0.024815
Pb      15.20638     15.31092      8.73313         0.318992     -0.238586     -0.125316
Pb       3.86439      3.64023     13.08853        -0.027828      0.511343     -0.022486
Pb       3.75740      0.01116     12.93012        -0.063028     -0.229611      0.422397
Pb       0.03170      3.78678     13.03648         0.250453     -0.316111      0.047229
Pb      15.29899     15.23788     13.07345         0.065239      0.009156     -0.321258
Pb       3.84307      7.67011      4.32445         0.057944     -0.048172      0.038895
Pb       3.81561      7.60287      0.00455        -0.218513      0.196910     -0.432467
Pb       0.15303      7.81676      4.32231        -0.908369     -0.439136     -0.498271
Pb      15.28218      7.69808      0.03340        -0.324883      0.091228     -0.076838
Pb       3.79096      7.72373      8.62118         0.022174     -0.153507      0.392124
Pb      15.33028      7.61955      8.63708        -0.250083     -0.284989     -0.170119
Pb       3.87271      7.55479     13.02721        -0.114550      0.261186      0.308090
Pb      15.33040      7.64394     13.10455         0.253037      0.003649     -0.114991
Pb       3.81237     11.57525      4.25877        -0.107864     -0.338015      0.347576
Pb       3.96266     11.62026     17.41237        -1.094204     -0.448994      0.112943
Pb       0.10299     11.55193      4.33859        -0.584600     -0.081667      0.101629
Pb      15.26321     11.52952     17.34334         0.066651      0.065209      0.100345
Pb       3.87357     11.50615      8.63637         0.025398     -0.148083      0.083072
Pb      15.33458     11.46032      8.72595        -0.072672      0.211175     -0.486315
Pb       3.92717     11.41137     13.09661        -0.161670     -0.146252     -0.299924
Pb       0.19818     11.53967     13.03021        -1.155932     -0.109010      0.251137
Pb       7.69531      3.77674      4.26816         0.023142      0.149342      0.352398
Pb       7.69470      3.84929      0.03638         0.304480     -0.338841     -0.340060
Pb       7.68132     15.34858      4.42118        -0.294947     -0.079097     -0.204318
Pb       7.52133      0.05305     17.31709         0.335459     -0.062827      0.290004
Pb       7.53506      3.89399      8.75035         0.566735     -0.597485     -0.367938
Pb       7.66199     15.31841      8.78206         0.472592     -0.544711     -0.238270
Pb       7.87837      3.91495     13.02916        -0.261800     -0.273054     -0.026218
Pb       7.69443      0.11472     12.99709         0.212479     -0.183444     -0.245790
Pb       7.73958      7.54649      4.33319        -0.098428      0.169749     -0.122337
Pb       7.58633      7.76992      0.00601         0.146357      0.195802     -0.355129
Pb       7.73391      7.63033      8.70856        -0.343653      0.281491     -0.260695
Pb       7.68162      7.73091     13.07198        -0.365467     -0.015180     -0.178473
Pb       7.64211     11.47676      4.34685        -0.031672     -0.136739     -0.264169
Pb       7.69612     11.58185     17.33706         0.202159     -0.308295      0.073380
Pb       7.60441     11.60154      8.61255         0.414919      0.012309      0.294127
Pb       7.79548     11.54643     12.96055        -0.449470     -0.044536      0.018706
Pb      11.44883      3.76533      4.30425         0.522627      0.037451      0.060725
Pb      11.71805      3.90756      0.14324        -0.643521     -0.568090     -0.600303
Pb      11.60611     15.27987      4.37606        -0.018819      0.016424     -0.506700
Pb      11.24772     15.25513      0.04091         0.720295      0.281575     -0.297629
Pb      11.44019      3.87131      8.66644         0.075054     -0.103332     -0.237021
Pb      11.48900      0.04461      8.76837        -0.348358     -0.347328     -0.527963
Pb      11.57399      3.72174     13.03004        -0.627775     -0.012855      0.034127
Pb      11.51187     15.30236     13.07878        -0.223078      0.183185     -0.053624
Pb      11.56409      7.55138      4.37514        -0.147185     -0.165676     -0.425449
Pb      11.47991      7.70637     17.41517         0.293252      0.036246     -0.083309
Pb      11.58577      7.72385      8.68877        -0.143622     -0.423655     -0.165544
Pb      11.34425      7.59483     13.14764         0.298670      0.122955     -0.368556
Pb      11.55308     11.43213      4.27104         0.029372      0.456491     -0.242175
Pb      11.39790     11.43097     17.35995         0.336058      0.218888      0.013323
Pb      11.55223     11.42370      8.61564        -0.472413      0.578312      0.441488
Pb      11.56060     11.48381     13.04514         0.227955     -0.180976     -0.380013
Ti       1.90646      1.96340      2.23273         0.005650     -0.066136     -0.180404
Ti       1.90466      1.94235     15.35989        -0.296700     -0.603295     -0.160203
Ti       1.84028     13.43928      2.29850         0.812944     -0.012827     -0.642617
Ti       1.81731     13.38474     15.36615         0.170581     -0.454202      0.635933
Ti      13.40954      1.85113      2.35790         0.294794      0.084366     -0.063335
Ti      13.41025      1.97041     15.34773        -0.126403     -1.473211     -0.536396
Ti      13.47594     13.36671      2.32263        -0.684430      0.198548     -1.904992
Ti      13.27323     13.45712     15.43780         0.994850     -0.174995     -1.170132
Ti       1.81862      1.86364      6.75533         0.109871      0.081713      1.363159
Ti       1.93358     13.41498      6.77201        -0.847334     -0.677081     -1.414138
Ti      13.40728      1.87209      6.65433        -1.055635      0.738033     -1.454379
Ti      13.43890     13.45284      6.65857        -0.205289     -0.972377     -0.907715
Ti       1.88749      1.86151     10.90322        -0.321367     -0.078067     -0.250575
Ti       1.90518     13.33046     10.90870        -0.367495      1.155547      0.370951
Ti      13.45687      1.87389     11.03465        -0.065697      0.057050      0.370146
Ti      13.37753     13.49261     10.99357         0.189306     -1.749458     -0.161995
Ti       1.94019      5.78722      2.38561        -0.764949     -0.918169     -0.356082
Ti       1.86943      5.73148     15.38454         0.776520     -0.462863     -1.082215
Ti      13.44239      5.73213      2.30784         0.585904     -0.295091      0.747914
Ti      13.43790      5.69474     15.36385        -0.229794      1.324834     -1.020184
Ti       1.86908      5.65201      6.56346         0.187902      0.688144     -0.600478
Ti      13.30811      5.77641      6.60612         1.042632     -0.087274     -1.892516
Ti       1.94010      5.68591     11.05299        -0.626034     -0.199010     -0.229823
Ti      13.38676      5.71107     11.25078        -0.275055      0.103321     -2.436626
Ti       1.85728      9.61016      2.29837        -0.452078      0.396459     -1.010350
Ti       1.81090      9.48089     15.46831        -0.221534      1.620703      0.342141
Ti      13.29818      9.50232      2.31840         1.324850      0.609486     -0.205570
Ti      13.34736      9.52541     15.31876         0.576126      0.856188      0.245166
Ti       1.82003      9.53663      6.70938         0.128468      0.727585     -0.567383
Ti      13.31580      9.63210      6.54376         0.607802     -0.458363     -0.690922
Ti       1.81228      9.50892     11.02248         0.962288      0.140015     -0.774592
Ti      13.36025      9.46929     11.05025        -0.714043      1.440329      1.122387
Ti       5.75698      1.90379      2.29331        -0.943323     -1.171080     -0.919792
Ti       5.68722      1.96579     15.39281         0.871623     -0.190875     -1.194478
Ti       5.73203     13.35887      2.29158        -0.127332      0.291484     -0.137311
Ti       5.70847     13.48945     15.29073        -0.353003      0.036080      0.166380
Ti       5.74163      1.82172      6.71562         0.306354      0.608631     -1.468142
Ti       5.75001     13.39266      6.60025         0.372278      0.085135     -0.118821
Ti       5.72594      1.89278     10.94614         0.420750     -0.292131      0.841045
Ti       5.66170     13.42990     11.08898         1.702049     -0.441770     -0.994310
Ti       5.71477      5.73286      2.28829         0.173170      0.101104      0.465911
Ti       5.77804      5.79361     15.40562        -0.889565     -0.453151     -0.488786
Ti       5.71337      5.70625      6.68835         0.070657      0.487686     -1.333169
Ti       5.64824      5.67360     10.97147         1.066428      0.683730      0.719990
Ti       5.65792      9.54688      2.31557         0.208557      1.373617      0.382137
Ti       5.64076      9.66109     15.40933         0.496925     -0.773872     -1.710382
Ti       5.74216      9.54927      6.58634        -0.463644      0.415621      0.400913
Ti       5.68749      9.59208     11.03910         0.115896     -0.144981      1.095477
Ti       9.52537      1.82136      2.37014         1.195616      0.372148     -0.951851
Ti       9.59755      1.90449     15.51891         0.409623      0.467171     -1.543686
Ti       9.50335     13.40992      2.33887         0.628433     -0.903454     -1.511641
Ti       9.47528     13.42661     15.28159         0.873370      0.265339     -0.579544
Ti       9.50994      1.85623      6.70581         1.113498      0.038356     -0.893794
Ti       9.62344     13.37062      6.64960         0.444769      0.090998      0.794049
Ti       9.61509      1.91024     10.95561         0.251401     -0.278854     -0.759929
Ti       9.56307     13.41350     11.02277        -0.141628      0.055882     -0.403661
Ti       9.59617      5.71112      2.24304         0.483357      0.136314     -0.555289
Ti       9.56348      5.72484     15.51210         0.309427     -0.927897     -0.655319
Ti       9.57202      5.72873      6.63852        -0.114273     -0.393975     -0.567626
Ti       9.52989      5.75684     11.04269         0.817615     -0.164511      0.563946
Ti       9.46953      9.55073      2.37405         0.286626     -0.061093     -1.423123
Ti       9.54031      9.47815     15.32779        -0.686900      1.270357     -0.438789
Ti       9.48747      9.52749      6.61341         1.017499      1.111314     -1.281183
Ti       9.51875      9.53078     10.99550         0.620134      0.876680      0.749669
O       1.96222      1.92222      0.42024        -0.270424      0.207326      1.098504
O       1.95694      2.04621     13.56629        -0.017140     -0.677806      0.601859
O       1.71919     13.54483      0.55680         0.693696     -0.292387      0.291448
O       1.84452     13.22730     13.58176         0.025291      0.673019     -0.248543
O      13.48669      1.86089      0.59401        -0.123443      0.249694     -0.296106
O      13.34662      1.92004     13.49459         0.143488      0.282824      1.600337
O      13.31450     13.44371      0.44807         0.466379      0.180799      0.649820
O      13.39723     13.49469     13.58772         0.116405      0.038859      0.958456
O       1.85936      1.80814      5.03311         0.202299      0.396601     -1.303812
O       1.83454     13.21143      4.94375         0.291621      0.877551      0.445668
O      13.41213      1.96016      4.81669        -0.001340     -0.497947      1.416480
O      13.42521     13.32253      4.83565        -0.188496      0.401180      0.710745
O       1.93892      1.85155      9.05965        -0.214242      0.052695      1.661274
O       1.88481     13.39794      9.13846         0.204078     -0.028317     -0.357031
O      13.49534      1.85874      9.23887        -0.426576      0.009138      0.303161
O      13.44720     13.46811      9.20909         0.051489      0.218934     -0.202307
O       1.86964      5.61172      0.58815         0.144619      0.457235      0.120974
O       1.98335      5.73949     13.57277        -0.498102      0.061032      0.725495
O      13.56416      5.83578      0.51042        -0.460416     -0.773230      0.117325
O      13.32917      5.70716     13.52425         0.459779     -0.211052      0.495864
O       2.04260      5.66108      4.72305        -0.527710      0.264606      1.915733
O      13.24950      5.73294      4.77997         0.242911      0.099729      1.169788
O       1.90643      5.70035      9.28423         0.017068      0.060019      0.081927
O      13.31372      5.83951      9.28239         0.358509     -0.355642      1.429214
O       1.80677      9.59334      0.52759         0.185885     -0.273654      0.055679
O       1.74646      9.55036     13.69838         0.174168     -0.107776     -0.246081
O      13.29437      9.50504      0.54349        -0.168734     -0.198812     -0.360997
O      13.32564      9.64906     13.56646         0.199432     -0.561189     -0.011433
O       1.79488      9.62408      4.86723         0.114555     -0.323804      1.385644
O      13.35047      9.61198      4.72055        -0.135792     -0.083198      0.978959
O       1.88853      9.60914      9.21876        -0.393152     -0.389828      0.747439
O      13.20053      9.44699      9.26789         0.736101      0.026914      0.683648
O       5.67787      1.90389      0.46215         0.325449      0.165673      1.418831
O       5.66264      1.73487     13.55977         0.169236      0.891608      0.948654
O       5.72109     13.30368      0.48833         0.297602      0.222265      0.514040
O       5.74869     13.48194     13.50694        -0.394686     -0.004833      0.955374
O       5.82851      1.80995      4.86021        -0.541544      0.158734      1.292735
O       5.75301     13.37852      4.84539        -0.051061      0.195919      0.003223
O       5.74355      1.92028      9.18203        -0.167729      0.120834     -0.255780
O       5.77683     13.30703      9.29959        -0.164747      0.326496     -0.447127
O       5.66251      5.83873      0.50850        -0.100282     -0.294202      0.953492
O       5.67683      5.67291     13.60968         0.664747      0.397966      0.969483
O       5.74618      5.86106      4.84331        -0.580400     -0.485906      1.172123
O       5.76978      5.51790      9.18924        -0.178382      0.570571     -0.020329
O       5.64687      9.51539      0.54035         0.324794      0.248285     -0.333764
O       5.61059      9.68458     13.53595         0.203038     -0.305933      1.755977
O       5.67263      9.64116      4.81830         0.117675     -0.586769      0.938744
O       5.66325      9.62956      9.32887         0.196559      0.322750     -1.334062
O       9.52758      1.76484      0.55771        -0.175856      0.071621      1.071697
O       9.67874      1.79517     13.65665        -0.323640      0.722298      0.820354
O       9.54356     13.38039      0.41939        -0.156602      0.271244      1.764420
O       9.58697     13.59774     13.47745        -0.437888     -0.492225      1.036407
O       9.58788      1.90573      4.85896        -0.293417     -0.326013      0.702368
O       9.75718     13.38956      4.89219        -0.285801     -0.057269     -0.483109
O       9.60808      1.98223      9.12758         0.157223     -0.262167      0.763955
O       9.44380     13.45124      9.25599         0.126162     -0.165703     -0.385753
O       9.63250      5.60255      0.43723        -0.068008      0.623960      0.688193
O       9.50534      5.74635     13.65385        -0.234938     -0.351849      1.220016
O       9.77254      5.76947      4.87717        -0.742841      0.184768      0.408679
O       9.48185      5.70172      9.29893        -0.034405      0.262608     -1.653107
O       9.39648      9.47442      0.47444         0.453606      0.162975      1.317803
O       9.48236      9.50228     13.52970         0.121346      0.001045      1.134927
O       9.47613      9.46648      4.75119         0.534263      0.362498      1.333713
O       9.49861      9.43018      9.22644         0.018897      0.186579      0.217591
O       3.80557      1.95007      2.72541         0.782999      0.029062      0.194900
O       3.85055      2.03210     15.74801        -1.054120     -0.501178      0.095273
O       3.80228     13.23277      2.64045         0.261900      0.439836     -0.003222
O       3.74019     13.36345     15.93006         1.544394      0.255470     -1.000060
O       0.03410      1.92599      2.78900         0.492039     -0.196869     -0.228648
O       0.01319      1.82895     15.69247        -0.415435      0.171755     -0.017775
O       0.07268     13.50426      2.69796        -1.511099      0.015854      0.635062
O      15.34465     13.50181     15.84712        -1.303445     -0.143942     -0.494779
O       3.77500      1.97715      7.14357         0.645709     -0.251604     -0.509648
O       3.84075     13.40030      6.95527        -0.158882      0.082056      0.539987
O      15.23003      1.85597      7.10150         0.567733     -0.075522     -0.107929
O      15.30652     13.50316      7.09817        -0.401151     -0.113375      0.085718
O       3.80590      1.78470     11.45569         0.152617      0.335060     -0.940924
O       3.82625     13.50692     11.35906        -1.097799     -0.299812      0.057911
O      15.35889      1.93717     11.51055         0.319897     -0.081724     -0.654151
O       0.01326     13.41206     11.27335        -0.270629     -0.017494      0.508020
O       3.83294      5.62574      2.81941         1.230745      0.351350     -0.601221
O       3.76442      5.78136     15.79465         0.220672      0.196720      0.286659
O       0.04371      5.78360      2.76615        -0.324473     -0.139616     -0.018076
O      15.33560      5.80426     15.71064        -0.293435     -0.262886      0.189169
O       3.76795      5.83311      7.05304         0.006119     -0.837174     -0.217470
O      15.27236      5.76664      6.95746         0.263977      0.141609      0.244068
O       3.84825      5.75110     11.58285        -0.235789     -0.167389     -1.127127
O       0.01822      5.48662     11.39497        -0.606237      0.995148      0.187560
O       3.76610      9.71673      2.73433         0.337656     -0.006876     -0.181360
O       3.75733      9.64174     15.76072         0.109903     -0.352311      0.086725
O      15.24420      9.51176      2.64938         1.093396     -0.770191      0.427586
O      15.20437      9.68984     15.80442         0.648962     -0.784828     -0.048609
O       3.79210      9.57608      7.15841        -0.407066      0.084260     -0.718721
O      15.28529      9.53327      7.15517        -0.039408      0.024950     -0.362889
O       3.77570      9.51107     11.46459        -0.746501      0.232601     -0.063894
O      15.28478      9.56592     11.47557        -0.208659     -0.164766     -0.520440
O       7.65052      1.89243      2.78687        -0.153781     -0.245979     -0.331804
O       7.65729      1.95190     15.78421        -0.655799      0.240157      0.183064
O       7.64617     13.37080      2.77030         0.603471      0.388028     -0.248894
O       7.58817     13.51745     15.73447         0.046735     -0.285081     -0.240576
O       7.66677      1.76714      7.00742        -1.042607      0.408329      0.343943
O       7.69206     13.43899      7.03267        -0.974875     -0.335043     -0.086327
O       7.78678      2.01006     11.24010        -2.148290      0.291956      0.617467
O       7.68790     13.36087     11.39421        -0.799751     -0.183786      0.446219
O       7.68996      5.72867      2.72743        -1.222003      0.282671     -0.368973
O       7.63407      5.64607     16.01695        -0.035498      0.439085     -1.031335
O       7.58525      5.86936      6.80688         1.324339     -0.009064      0.997379
O       7.69279      5.69542     11.46055        -1.403449     -0.312562     -0.039912
O       7.65189      9.64652      2.80423        -0.791488     -1.277389     -0.423760
O       7.60628      9.48972     15.72219        -0.333120      0.633603      0.153727
O       7.65993      9.62903      6.93443        -1.184844     -0.413258      0.279965
O       7.63706      9.66601     11.53487        -0.101880     -0.318575     -0.666167
O      11.46245      1.91885      2.70678        -0.318899     -0.636199     -0.164892
O      11.47297      1.94755     16.01857         1.195077      0.247571     -0.635867
O      11.60237     13.41601      2.57054        -1.476918      0.038810      0.778787
O      11.40356     13.44451     15.57493        -0.266370      0.356528      0.710356
O      11.48481      1.88765      7.12244        -0.102691      0.169900     -0.030972
O      11.52432     13.26430      7.13958        -0.208896      0.812912     -0.261732
O      11.49901      1.80842     11.46149         0.351887      0.048415     -0.593246
O      11.49705     13.64598     11.21593        -0.171454     -0.119586      0.574077
O      11.51200      5.73748      2.66249        -0.069853     -0.289169     -0.405877
O      11.50590      5.73357     15.78138        -0.035695      0.034889      0.160438
O      11.49191      5.77140      6.98947        -1.457289     -0.170768      0.726933
O      11.40967      5.77172     11.49069         1.279975      0.314571      0.051530
O      11.43755      9.64896      2.60705        -0.450827     -0.287719      0.320742
O      11.45469      9.51890     15.73720        -0.707464     -0.276983      0.238436
O      11.46707      9.69515      7.06547         0.046291     -0.719694     -0.574799
O      11.41747      9.55600     11.60167         0.685196     -0.827343     -0.883756
O       1.89099      3.84584      2.74271         0.158695     -0.984896     -0.006023
O       1.75906      3.81637     15.67642         0.407183      0.172263      0.529700
O       2.05672      0.03361      2.76320        -0.604406     -0.183920     -0.097028
O       2.00281     15.23991     15.83141        -0.261694      1.829452     -0.773972
O      13.38375      3.73768      2.67840         0.358686      1.265084     -0.083937
O      13.59087      3.87906     15.75450        -0.764779     -0.945041      0.344735
O      13.56869     15.32303      2.73686        -0.624282      0.031947      0.315154
O      13.40867      0.10592     15.63954        -0.272647     -0.882895      0.394900
O       1.72953      3.83101      7.01215         0.535895      0.173755      0.015730
O       1.90119     15.30623      6.99490         0.161878      0.436487      0.425278
O      13.33873      3.86944      6.94937         0.211875     -0.569432      0.701605
O      13.25101     15.32265      6.95674         0.373929      0.132304      0.214508
O       2.00688      3.74081     11.30040         0.213609     -0.066516      0.119127
O       1.86196     15.29903     11.35366        -0.006742      0.559088     -0.077728
O      13.37815      3.78175     11.37111        -0.393180      0.133382      0.222340
O      13.50826     15.34974     11.43523         0.171885      0.361975     -0.042011
O       2.08683      7.68830      2.67275        -0.515576     -0.157181      0.292924
O       1.74426      7.61807     15.86704         0.656984      0.770391     -0.176061
O      13.44068      7.56804      2.61142        -0.564102      0.957838      0.505865
O      13.43464      7.62180     15.78822        -0.255872      0.373539     -0.223956
O       1.79852      7.60855      7.06835         0.340476      0.549561     -0.358053
O      13.29736      7.70554      6.87933         0.121866      0.077608      0.519761
O       1.78747      7.59868     11.44620         0.131711      0.479751     -0.082840
O      13.40200      7.59584     11.57555         0.263041      0.628590     -0.402468
O       1.66905     11.45251      2.64004         0.909216      0.840136      0.103476
O       1.79446     11.52271     15.82412         0.172468     -0.616048      0.041982
O      13.51994     11.48000      2.50120        -0.262854      0.242999      0.710779
O      13.26644     11.51230     15.68233         0.080512      0.319196      0.429551
O       1.74636     11.54204      7.06768         0.368026     -1.430275      0.474656
O      13.40843     11.45512      6.94733         0.467294      0.489845      0.595687
O       1.80274     11.48158     11.30398         0.669911     -0.698919      0.146210
O      13.22064     11.54209     11.39107         0.601962     -0.442283     -0.328439
O       5.78190      3.78625      2.63141        -0.031775      0.565311      0.109074
O       5.59102      3.89023     15.80595         0.950340     -0.184887     -0.073107
O       5.76461     15.25552      2.64133        -0.302913      0.874263      0.152975
O       5.72851      0.07448     15.80353        -0.535162     -1.279677     -0.271573
O       5.83906      3.80541      7.01636        -0.514636      0.188102     -0.067780
O       5.69254     15.32761      7.04516        -0.155044     -0.156459      0.158296
O       5.62212      3.78958     11.32979         0.366936     -0.384192      0.092050
O       5.78540     15.35229     11.30748         0.236132      0.677073      0.153550
O       5.57755      7.74468      2.68245         0.543563     -1.977276      0.061402
O       5.71751      7.70137     15.79131        -0.221415     -0.241170     -0.098810
O       5.70940      7.70944      7.25704         0.171633     -0.156033     -0.880924
O       5.74748      7.62414     11.22061         0.127117     -0.230848      0.510842
O       5.86297     11.46776      2.75109        -0.593258      0.253364     -0.207085
O       5.74739     11.56026     15.72922        -0.090314     -0.035128     -0.069920
O       5.68013     11.51525      6.99232         0.309610     -0.716465      0.234534
O       5.63998     11.54604     11.43994         0.072015     -0.707116      0.277837
O       9.53778      3.86475      2.67245        -0.027840     -1.315807      0.183633
O       9.61730      3.78475     15.93523        -0.449038      0.851421     -0.374485
O       9.55612     15.26490      2.80300         0.116012      0.500499     -0.355139
O       9.54141      0.03880     15.72955        -0.081952     -1.569939      0.577838
O       9.48387      3.79564      6.90314         0.163563      1.141894      0.623251
O       9.48622     15.28739      7.06210         0.956256      0.176576      0.067269
O       9.73324      3.87298     11.36995        -0.546544     -1.006047      0.455883
O       9.39035     15.34197     11.28679         0.628251      0.907004      0.082384
O       9.58888      7.56297      2.69666        -0.241270      1.049883     -0.137976
O       9.41632      7.64539     15.68029         0.615030     -0.837718      0.481108
O       9.61744      7.73216      7.06775        -0.347186     -1.357154     -0.026128
O       9.50029      7.67228     11.52997        -0.091990     -0.153328     -0.439751
O       9.45094     11.47482      2.56323         0.737566      0.565773      0.482130
O       9.53120     11.48086     15.67805        -0.267282      0.414589     -0.060766
O       9.56022     11.45668      7.08443        -0.227582      0.148672     -0.125305
O       9.68381     11.47872     11.39126        -0.370743      0.048632      0.049254
