  # total energy = -7882.49725160 
CRSYTAL
PRIMVEC
    15.3600000000000000    0.0000000000000000    0.0000000000000000
     0.0000000000000000   15.3600000000000000    0.0000000000000000
     0.0000000000000000    0.0000000000000000    17.440000000000000
PRESSURE
0.719783 0.952375 0.154856 0.292238 0.204727 -0.014678
PRIMCOORD
320 1
Pb       3.76487      3.86575      4.23257         0.256108     -0.301873      0.070033
Pb       3.77905      3.87261     17.33741        -0.053241     -0.042321     -0.286833
Pb       3.83054      0.01745      4.23506         0.353709     -0.202110     -0.545965
Pb       3.91794      0.08511      0.03013        -0.460140     -0.190779      0.160567
Pb      15.23144      3.87160      4.29265         0.675708     -0.081700      0.491258
Pb      15.23374      3.80674     17.40851         0.773397      0.106155     -0.288964
Pb      15.22108     15.28246      4.29996         0.308685     -0.144882     -0.269006
Pb      15.35424     15.32134      0.02859         0.456063      0.172322     -0.362364
Pb       3.87546      3.84137      8.65246         0.188387     -0.292184      0.196709
Pb       3.78953     15.26640      8.78978         0.434938      0.319405     -0.334652
Pb       0.10604      3.67004      8.66869         0.044123      0.226590     -0.053889
Pb       0.11928     15.33520      8.60827        -0.270405      0.431826      0.379629
Pb       3.75425      3.91567     13.08389        -0.009881     -0.049306     -0.651243
Pb       3.90949     15.26780     13.24290        -0.138918     -0.132320     -0.963372
Pb      15.25190      3.83904     13.01265         0.200589     -0.079010     -0.296667
Pb       0.00414      0.04693     13.00059        -0.129205     -0.018067      0.003511
Pb       3.82149      7.63027      4.26321        -0.421897      0.555430      0.791418
Pb       3.80307      7.75884      0.00428         0.039091     -0.699930     -0.300446
Pb      15.25065      7.50630      4.34019         0.478846      0.596152     -0.105610
Pb       0.07122      7.71507     17.37665        -0.782179     -0.278712      0.125732
Pb       3.88215      7.54192      8.74598         0.091063      0.223461     -0.502452
Pb      15.35680      7.64438      8.73288         0.068834      0.504743     -0.464753
Pb       3.78689      7.79057     13.07626        -0.218670     -0.691642     -0.679075
Pb       0.03796      7.71169     12.91540        -0.342363     -0.219513      0.502500
Pb       3.78284     11.43899      4.29677         0.423603      0.318187      0.100359
Pb       3.81016     11.40718     17.42977        -0.138134      0.945601      0.263233
Pb      15.35639     11.46744      4.27650        -0.172941      0.405841     -0.091251
Pb       0.05014     11.41808      0.02330        -0.428693      0.398282      0.046997
Pb       3.70829     11.51387      8.68949         0.379414      0.292161     -0.594194
Pb       0.04465     11.49577      8.62323         0.232641      0.007055     -0.204958
Pb       3.76353     11.55674     13.03626        -0.112562      0.415965      0.029239
Pb      15.19213     11.42630     13.11279         0.110240      0.447801     -0.385711
Pb       7.61593      3.88773      4.36631         0.225171     -0.073327     -0.667502
Pb       7.68419      3.86749     17.27935        -0.634200      0.110875      0.581299
Pb       7.61966      0.06294      4.18544         0.342022     -0.595328      0.404055
Pb       7.77429     15.31087     17.43910        -0.191932      0.096350     -0.080210
Pb       7.69581      3.68697      8.74727         0.206417      0.420032     -0.206827
Pb       7.64388     15.29922      8.64825         0.285261     -0.065420     -0.095758
Pb       7.52821      3.69869     13.11389         0.508330      0.865203      0.134494
Pb       7.65689     15.15022     13.17453        -0.501195     -0.123854     -0.672158
Pb       7.57178      7.71725      4.32838         0.256675      0.327494     -0.149596
Pb       7.79834      7.53894     17.39736        -0.243937      0.059150      0.018770
Pb       7.54827      7.67848      8.67979         0.341743     -0.260809      0.249739
Pb       7.61503      7.60903     12.99203         0.432786      0.230862      0.506045
Pb       7.67520     11.52650      4.28769        -0.143277     -0.234340      0.224600
Pb       7.72607     11.47199      0.00370         0.084801      0.043908     -0.420325
Pb       7.68958     11.37859      8.74306        -0.721275      0.829048     -0.087957
Pb       7.58801     11.43764     13.10915         0.281220      0.609946     -0.195472
Pb      11.50493      3.86661      4.40361        -0.139607     -0.018606     -0.170358
Pb      11.35091      3.80831     17.29429         0.772276     -0.002313     -0.005747
Pb      11.40047      0.12805      4.26031         0.197613     -0.808093      0.638227
Pb      11.69249      0.01617     17.31675        -0.497824     -0.316808     -0.187979
Pb      11.60983      3.76836      8.74702        -0.402618     -0.329735     -0.649904
Pb      11.48746     15.21260      8.62888        -0.014142      0.690218     -0.087656
Pb      11.43822      3.89231     12.99269         0.631591     -0.426630      0.180149
Pb      11.46709     15.29205     13.02203         0.774698      0.431862      0.121552
Pb      11.48154      7.73328      4.34796        -0.259587      0.376998     -0.044739
Pb      11.49133      7.60632     17.38331         0.342822      0.313974     -0.431140
Pb      11.42422      7.57397      8.70535        -0.000207      0.553538     -0.301299
Pb      11.60710      7.74845     12.85816        -0.104159     -0.167074      1.002122
Pb      11.42025     11.53575      4.43597         0.228138     -0.240213     -0.531549
Pb      11.64042     11.55777      0.01107        -0.555699     -0.070231     -0.291152
Pb      11.39716     11.52574      8.76038         0.181935      0.044950     -0.218363
Pb      11.38340     11.49107     13.00013         0.237274      0.068994      0.260632
Ti       1.82648      1.95379      2.37323         1.120510     -0.875322     -1.354410
Ti       1.94019      1.82253     15.35478         0.366044      1.420556      0.463325
Ti       1.95649     13.42829      2.28801         0.226486     -0.617699      1.297250
Ti       1.90161     13.42202     15.48092         0.255270     -0.021644      0.176784
Ti      13.37797      1.94699      2.33002         1.394503     -0.431700      0.143149
Ti      13.53992      1.98200     15.38153        -0.171297     -0.768437     -0.916832
Ti      13.38313     13.44886      2.24694         0.943863     -0.295797      1.723080
Ti      13.50537     13.44734     15.33830        -0.667656     -0.344561     -0.130356
Ti       2.09730      1.94053      6.59744        -0.418976      0.453467      0.667149
Ti       1.97252     13.54322      6.53821         0.268783     -0.877814      1.289103
Ti      13.51409      1.86905      6.72582        -0.579806      0.402444     -1.158596
Ti      13.48756     13.39643      6.71352        -0.636379      0.361975     -0.839498
Ti       2.06346      1.91247     11.07944        -0.646918     -0.345347      0.770976
Ti       1.78776     13.43593     10.99767         0.975535      0.394295      1.953079
Ti      13.44918      1.93526     10.98782         0.560151     -0.735738      1.263043
Ti      13.42334     13.51671     10.90359         0.900604     -0.329984      1.822064
Ti       1.93015      5.75649      2.20869        -1.337319      0.450540      0.638960
Ti       1.82497      5.72731     15.30575         0.830541     -0.463065      0.652729
Ti      13.39710      5.67800      2.23658         0.220451      1.458354     -0.777946
Ti      13.47704      5.76862     15.36685        -0.450713      1.143579      0.866560
Ti       1.88742      5.81529      6.76201         0.318349     -0.371075     -0.853834
Ti      13.42068      5.77722      6.73951         0.422258     -0.164820      1.429207
Ti       1.87983      5.78716     10.97721         0.649455     -0.099455      1.808727
Ti      13.40141      5.80627     10.84260         1.091431     -0.333767      1.829356
Ti       1.78219      9.56040      2.32503         0.741840      0.124592      0.930127
Ti       1.88248      9.56282     15.38783        -1.048546      0.839416     -1.069143
Ti      13.35343      9.61892      2.28887        -0.270702      0.160625     -1.218468
Ti      13.36293      9.60832     15.43492         0.084300     -0.144264      0.179008
Ti       1.87989      9.60802      6.60382        -0.562879      0.082780     -0.212766
Ti      13.35483      9.66188      6.73102         0.814856     -0.748343      0.247412
Ti       1.84530      9.66389     10.95786         0.188388     -1.273750      0.092405
Ti      13.41991      9.69127     10.91397        -0.060804     -0.240505      1.087908
Ti       5.81630      1.93950      2.24224        -0.588311      0.334784      0.867713
Ti       5.79452      1.91834     15.44849        -0.678065     -0.217200      2.818841
Ti       5.87721     13.39256      2.27356        -1.168192      0.084813      1.224945
Ti       5.74087     13.39999     15.55646        -0.072882      0.389881     -1.261144
Ti       5.87724      1.84894      6.64411        -1.079714     -0.030289      1.484146
Ti       5.77918     13.45129      6.67198         0.116191     -1.262044     -0.653568
Ti       5.83844      1.93651     11.00481        -1.387693     -0.546996      0.162449
Ti       5.69973     13.46359     10.98008         0.074228      0.428255      0.713200
Ti       5.75593      5.75596      2.34132         0.877592     -0.413036     -1.177671
Ti       5.72357      5.83386     15.36726        -0.349776     -0.718147      0.606926
Ti       5.85774      5.64511      6.64851        -0.288158      1.014476      0.566839
Ti       5.77235      5.80445     11.04392        -0.911593     -0.798411     -0.844143
Ti       5.64391      9.57464      2.27330         0.735180      0.037995      0.335957
Ti       5.72686      9.56702     15.40917         0.651753      0.408640      0.356775
Ti       5.64341      9.58839      6.76002         0.417867      0.449810     -1.740680
Ti       5.69884      9.64904     11.09688         0.282291      0.052724     -0.179780
Ti       9.65921      1.92640      2.21717        -0.943147     -0.114912      0.608655
Ti       9.61347      1.84110     15.33619         0.109421     -0.287971      0.447279
Ti       9.71867     13.38349      2.28275        -1.327147     -0.125621      0.095731
Ti       9.61802     13.40895     15.44708         0.679868     -0.371015     -0.166561
Ti       9.67085      1.94010      6.59223        -1.090756     -0.352646      1.336985
Ti       9.58509     13.42306      6.67258        -0.779929      0.674418      0.143414
Ti       9.58246      1.93842     11.07485         0.433212     -0.267571      0.465845
Ti       9.68148     13.51138     11.01375        -1.877669     -1.179703     -0.587216
Ti       9.61761      5.72985      2.38781        -0.817052      0.195886      0.724972
Ti       9.65097      5.64137     15.30845        -0.232867      1.416178     -0.878811
Ti       9.62395      5.75885      6.62258        -1.111836     -0.293478     -0.262551
Ti       9.59960      5.73048     10.99392        -1.081194     -0.078479      1.074681
Ti       9.56055      9.51589      2.23487        -0.460337      0.823908      0.779503
Ti       9.56724      9.55949     15.43626         0.470618     -0.136042     -1.252107
Ti       9.57606      9.61094      6.83710        -0.641434     -0.486816     -1.579528
Ti       9.54315      9.58849     11.11224         0.122064      0.480727      0.482051
O       1.85992      1.86523      0.59008        -0.120370      0.434195      0.935478
O       2.04032      1.73413     13.61019        -0.109546      0.437769     -0.575968
O       1.86607     13.29275      0.57690        -0.077419      0.511644     -1.114891
O       2.01795     13.27592     13.72157        -0.389979      0.580718      0.662738
O      13.61468      1.99561      0.57857        -0.749009     -0.133495     -0.418826
O      13.51350      1.90558     13.64088         0.009806      0.081311     -0.019432
O      13.38294     13.51380      0.52219         0.120085      0.053537     -0.370421
O      13.54958     13.38042     13.55548        -0.491793     -0.142813      0.950138
O       2.09316      1.91369      4.83606        -0.111612      0.188975     -0.302725
O       1.95139     13.52937      4.79925        -0.096302     -0.019903      0.055204
O      13.32934      2.04181      4.90864         0.549047     -0.414925      1.235883
O      13.36985     13.30219      4.92314         0.416280      0.445768      0.923183
O       2.01284      1.93430      9.32582        -0.085460      0.048962     -0.186903
O       2.05293     13.42555      9.28787        -0.565921      0.194230     -0.967306
O      13.48154      1.83876      9.25704         0.019504      0.266972     -1.481643
O      13.46218     13.55962      9.15945        -0.139259     -0.104907     -0.034764
O       1.90562      5.79776      0.47298         0.027388     -0.115308     -0.200601
O       1.86275      5.76906     13.54173         0.049452      0.126848      0.769996
O      13.45241      5.73399      0.43817        -0.309449     -0.326340      1.607494
O      13.45229      5.84723     13.65364        -0.027285     -0.134587     -1.023616
O       1.87218      5.73022      4.96792        -0.278474      0.002988      0.834019
O      13.68142      5.64902      5.01226        -0.882856     -0.050977     -0.672729
O       1.98193      5.92684      9.24527        -0.160794     -0.420134     -1.228934
O      13.37218      5.87223      9.07163        -0.096915     -0.396130      1.077307
O       1.71636      9.60461      0.56486         0.727717     -0.159024     -0.795880
O       1.79316      9.69522     13.55507         0.331462     -0.450852      1.694567
O      13.27204      9.59131      0.43655         0.401235     -0.087132      2.413488
O      13.44044      9.71954     13.62385        -0.221398     -0.133065      0.533713
O       1.74034      9.54280      4.82804         0.397270      0.306462      0.678557
O      13.25843      9.66849      4.98622         0.326995      0.300000     -0.409528
O       1.76526      9.60461      9.17365         0.429737     -0.039858      0.578834
O      13.37296      9.46555      9.20613         0.126364      0.378386     -0.797300
O       5.86330      1.98337      0.52737        -0.388848      0.108287     -1.326143
O       5.74389      1.80378     13.77865         0.058758      0.195028     -2.127434
O       5.87202     13.32061      0.53347         0.203798     -0.029866     -0.131665
O       5.70344     13.51430     13.72417         0.154683      0.007538      0.939079
O       5.75055      1.99159      4.93559         0.249061     -0.276602     -1.089281
O       5.84784     13.49241      4.88263        -0.165060     -0.061491      0.338789
O       5.94201      1.79639      9.26071        -0.156340      0.175830     -0.213381
O       5.63168     13.39275      9.20120         0.155708      0.166695      0.888930
O       5.89294      5.73277      0.55555        -0.504136      0.049022      0.551554
O       5.77275      5.75201     13.61522        -0.208415      0.304119     -0.004546
O       5.83275      5.76107      4.86419        -0.100988     -0.180350      0.318185
O       5.93570      5.88300      9.22667        -0.882983     -0.209476      1.136364
O       5.60899      9.58536      0.47801         0.201491      0.139511      0.880999
O       5.80303      9.58182     13.63563        -0.300667     -0.026924      0.474694
O       5.68881      9.53699      4.93334         0.149982     -0.197375      0.919875
O       5.74707      9.64737      9.32152        -0.416176     -0.070094      0.649973
O       9.89844      1.85078      0.47182        -0.776117      0.535108      0.321368
O       9.51958      1.94685     13.59535         0.286151     -0.366678     -0.275391
O       9.75020     13.39781      0.53024        -0.499304      0.126911     -0.290517
O       9.64982     13.43712     13.64831        -0.124365      0.289354      0.119876
O       9.64065      1.88429      4.86026         0.062446      0.441886     -0.913502
O       9.57553     13.44168      4.91634         0.236768     -0.393499     -0.047543
O       9.51353      1.87474      9.35387        -0.000284      0.144881     -0.785383
O       9.65703     13.45093      9.19693         0.170149      0.216338      1.313408
O       9.58023      5.83860      0.63017         0.230126     -0.437456     -0.809827
O       9.61915      5.52139     13.54981         0.033566      0.575081      0.336352
O       9.64760      5.75223      4.78679        -0.178951     -0.116661      1.419072
O       9.46972      5.73521      9.27169         0.584105     -0.089158      0.275574
O       9.54436      9.42876      0.48101         0.085453      0.240224     -0.501875
O       9.56222      9.67807     13.61884         0.231901     -0.124610      0.501014
O       9.65858      9.60960      5.05017        -0.464722     -0.022501      0.848584
O       9.59643      9.66973      9.38871        -0.002458     -0.112069     -1.606716
O       3.92065      2.01938      2.71488        -0.827497     -0.470734     -0.096533
O       3.82115      1.88776     15.93622         1.279799      0.215460     -0.248907
O       3.89647     13.39675      2.65897         0.307939      0.143271      0.027910
O       3.87598     13.47758     15.97789        -0.972088     -0.260276     -0.233009
O      15.30163      1.90560      2.77962         0.275941     -0.054782      0.091767
O       0.10385      1.96229     15.76671        -1.126232     -0.052575      0.313535
O      15.33953     13.44940      2.73902        -0.273522      0.182018     -0.102961
O      15.33798     13.48768     15.87298         0.895661     -0.222407     -0.192169
O       3.90134      1.93527      7.19532         0.636729      0.150750     -0.486348
O       3.82041     13.39427      7.12939        -0.238807      0.470637     -0.478179
O       0.13852      1.88592      7.01134        -1.146574      0.218389      0.090494
O       0.05277     13.53020      7.14568         0.406148     -0.320858     -0.804734
O       3.89287      1.91656     11.45497        -0.391767     -0.363387      0.168548
O       3.71025     13.50638     11.55454         1.019348     -0.548384     -0.404815
O      15.35702      1.93401     11.45612         0.522291      0.010459      0.060728
O      15.29609     13.47829     11.50954         0.307931     -0.489261     -0.910356
O       3.72536      5.88732      2.68860         1.097341     -0.735300     -0.252663
O       3.79805      5.87091     15.81036         0.201936     -0.346374     -0.249880
O      15.28355      5.69902      2.71192        -0.126005      0.211365     -0.161754
O      15.33310      5.75301     15.84961         1.163893      0.221753     -0.322372
O       3.89350      5.75986      7.12840         0.110393     -0.175552     -0.142084
O      15.35119      5.67792      7.24585         0.176075      0.413190     -0.417170
O       3.82342      5.94126     11.44354         0.304039     -0.265912     -0.020197
O      15.33090      5.80947     11.40153        -0.645421     -0.446922     -0.738140
O       3.73568      9.59336      2.84802         0.756994     -0.866435     -0.939610
O       3.76001      9.65804     15.89472         0.026556     -0.390056     -0.817608
O      15.34253      9.73296      2.71660        -2.020804     -0.445647     -0.180360
O      15.27799      9.54976     15.89932         0.836488      0.724879     -0.585655
O       3.73743      9.62237      7.01212         0.459704     -0.031109      0.388411
O      15.29189      9.59956      7.09693         0.145611      0.145094     -0.019286
O       3.79037      9.58080     11.50823         0.312433      0.053017     -0.516225
O      15.30005      9.57345     11.35652         0.349091      0.216368     -0.037090
O       7.69746      1.89413      2.54750         0.669609      0.341686      0.376917
O       7.67634      1.91330     15.84551         0.746503     -0.230302     -0.216726
O       7.77703     13.40534      2.74684        -1.304003     -0.009011     -0.371184
O       7.70527     13.41492     15.85783         0.423769     -0.053983      0.109238
O       7.70497      1.87353      7.09704         0.737628     -0.300095     -0.173040
O       7.65734     13.34968      7.10469         0.587882      0.499279      0.105298
O       7.64456      2.04757     11.53959         0.397437     -0.463568     -0.301788
O       7.57489     13.45831     11.49704         0.833629      0.272690     -0.329796
O       7.69458      5.77595      2.69600        -0.557861      0.107920      0.468757
O       7.74528      5.75035     15.78372        -0.450013      0.177012     -0.163466
O       7.72023      5.81890      7.06589        -0.414066     -0.222709     -0.498231
O       7.58310      5.71477     11.52539         1.088572     -0.133911     -0.154727
O       7.63755      9.60763      2.68328        -0.520738     -0.440148     -0.137616
O       7.66613      9.55273     15.79045        -0.470188      0.223848      0.153188
O       7.56052      9.60325      7.25847         1.468573     -0.140124     -0.531831
O       7.69740      9.66721     11.46870        -1.240156     -0.118690      0.158162
O      11.56232      2.00218      2.78509        -1.150923     -0.143872     -0.401407
O      11.61262      1.92485     15.75175        -0.612732      0.156366     -0.017527
O      11.50150     13.40204      2.74518         0.720053      0.280706      0.100235
O      11.56104     13.45216     15.85597         0.035555      0.362490     -0.457429
O      11.48175      1.88334      7.04474         0.948310      0.309661      0.362882
O      11.52561     13.38956      7.15315        -0.126701     -0.051861     -0.338659
O      11.57606      1.91850     11.35459        -1.174094      0.116931      0.356543
O      11.52957     13.46682     11.47305        -0.231704     -0.003682     -0.556356
O      11.47952      5.77260      2.76710         1.310507     -0.294197     -0.184646
O      11.56456      5.74863     15.79096        -0.951182     -0.701213     -0.052869
O      11.44022      5.66630      7.17765         0.978943      0.112731     -0.448834
O      11.56212      5.70189     11.45701        -0.278443      0.459278     -0.963746
O      11.41765      9.59783      2.79840         0.968794      0.262532     -0.347288
O      11.45498      9.58058     15.83394         0.380276      0.059567     -0.214273
O      11.47614      9.57462      7.10449        -0.261151      0.394243      0.734581
O      11.51593      9.64219     11.35176         0.022256     -0.179435      0.464037
O       1.93774      3.85159      2.58597        -0.207629      0.247189      0.413970
O       2.04543      3.82807     15.65989        -0.352555      0.670318      0.112124
O       1.97356     15.30077      2.63566        -0.210466      1.204450      0.353471
O       1.97469      0.08026     15.93369        -0.306403     -2.323517     -0.043324
O      13.43569      3.85908      2.71670        -0.379096     -0.061174     -0.076654
O      13.56643      3.88453     15.60473        -0.346675     -0.839238      0.812510
O      13.38081      0.01833      2.80438        -0.033992      0.103083     -0.528254
O      13.54073     15.31757     15.70722        -0.304338      1.045736      0.469306
O       1.99994      3.83670      7.22523        -0.259614      0.074406     -0.536016
O       2.05098      0.09883      7.10804        -0.284372     -1.273377     -0.376706
O      13.44054      3.78457      7.18626        -0.057270     -0.261473     -0.006528
O      13.47677     15.32510      7.09426        -0.125680      0.796194     -0.343484
O       1.99986      3.90359     11.53681        -0.327020     -0.528072     -0.571010
O       1.86295     15.31364     11.46988         0.094290      0.444917     -0.472704
O      13.50704      3.80216     11.44768        -0.539090      1.534648     -0.770897
O      13.43646     15.34422     11.48940        -0.178574      0.153305     -0.312533
O       1.69816      7.67313      2.70652         0.530253     -0.537034     -0.185201
O       1.86735      7.72909     15.80486         0.142827     -0.345243     -0.333805
O      13.32207      7.75651      2.78937         0.695149     -0.752147     -0.438310
O      13.43540      7.72905     15.81382        -0.254814     -0.345806     -0.156053
O       1.92869      7.72046      7.00110        -0.334526     -0.728680      0.408728
O      13.36941      7.65708      6.98966         0.011316     -0.176606      0.095894
O       1.88511      7.62891     11.47252        -0.063136      1.454584     -0.233784
O      13.49490      7.68368     11.44026        -0.801419     -0.311510     -0.807375
O       1.99852     11.46614      2.69117        -0.618299      0.585521      0.322207
O       1.79900     11.55167     15.88089         0.519363     -0.855496     -0.198059
O      13.43510     11.57105      2.67725        -0.450375     -0.810482     -0.181102
O      13.39764     11.56063     15.98182         0.518968     -0.433014     -1.107229
O       1.93416     11.58463      7.04742        -0.642348     -0.132953     -0.266939
O      13.44481     11.58154      7.20032        -0.020424     -1.040833     -0.106081
O       1.90700     11.44207     11.31373        -0.132370      1.341080      0.172085
O      13.44837     11.57226     11.33900        -0.165986     -0.318658     -0.401261
O       5.77783      3.88589      2.76137        -0.082316     -0.061010      0.028061
O       5.79495      3.91631     15.74548        -0.247316     -0.625617      0.177956
O       5.77347      0.00942      2.66343         0.129257     -0.429310     -0.289172
O       5.82502     15.28477     15.96234        -0.082784      1.250994     -0.101226
O       5.95459      3.75773      7.07453        -0.773902      1.099520     -0.055411
O       5.80622     15.29311      7.10337        -0.265757      0.930358     -0.065358
O       5.50108      3.85030     11.20334         1.028085      0.638033      0.826046
O       5.76425      0.05018     11.48468        -0.082190     -0.755164     -0.046599
O       5.67080      7.62882      2.72931         0.315473      0.936471     -0.039690
O       5.64017      7.69887     15.91008         0.612545      0.230371     -0.602743
O       5.78631      7.68311      7.14591        -0.474447     -0.472994     -0.233534
O       5.77940      7.74206     11.57096        -0.064737      0.157452     -0.565631
O       5.69582     11.41096      2.80003         0.380911      0.858359     -0.612934
O       5.73291     11.52830     15.80644         0.160209     -1.394861      0.199249
O       5.78969     11.51746      7.02365        -0.596168     -0.399851      0.408915
O       5.72248     11.61302     11.61937        -0.314468     -1.065103     -0.855672
O       9.54257      3.80470      2.73056         0.509931     -0.151029     -0.242865
O       9.55601      3.74137     15.62819         0.589788      0.442208      1.046907
O       9.51885     15.34871      2.65978         0.981331      0.661805     -0.026917
O       9.62784     15.34178     15.90182        -0.013133      0.337066     -0.617145
O       9.51515      3.85582      7.11217         0.397287     -0.435469     -0.418190
O       9.59524     15.34425      6.94668         0.071068     -0.012310      0.507145
O       9.58384      3.83462     11.43749         0.168330      0.331782     -0.173384
O       9.60607      0.02045     11.47060        -0.213731     -0.345914      0.092106
O       9.54879      7.70532      2.76976         0.243613     -0.477925      0.055017
O       9.66573      7.58512     15.66482        -0.321536      0.404919      0.296936
O       9.57462      7.62141      7.19606         0.300862      0.671622     -0.378058
O       9.53880      7.66779     11.43242         0.375777     -0.600052     -0.050521
O       9.53253     11.47950      2.66261         0.359122      0.008628      0.045483
O       9.69213     11.54820     15.77320        -0.626405     -0.819193      0.364964
O       9.51034     11.53080      7.18571         0.764712     -0.804563     -0.060379
O       9.52355     11.59478     11.40963         0.616299      0.082911      0.234813
