  # total energy = -7878.98757341 
CRSYTAL
PRIMVEC
    15.2000000000000000    0.0000000000000000    0.0000000000000000
     0.0000000000000000   15.2000000000000000    0.0000000000000000
     0.0000000000000000    0.0000000000000000    17.000000000000000
PRESSURE
8.18521 7.96514 3.74963 0.366366 -0.076956 0.065867
PRIMCOORD
320 1
Pb       3.70682      3.86250      4.21083         0.294197     -0.494818      0.476899
Pb       3.91775      3.92999      0.01368        -0.617898     -0.601995     -0.389340
Pb       3.67849      0.12898      4.35076         0.168303     -0.729865      0.383850
Pb       3.91321     15.16326      0.02681         0.101244      0.518570     -0.227091
Pb       0.00545      4.07647      4.29740        -0.202545     -1.178486     -0.368659
Pb      15.13333      3.68195      0.03878         0.603330      0.361079      0.190701
Pb       0.07577      0.17381      4.22280        -0.026478     -0.394171      0.560249
Pb      15.17634     15.12833     16.95434        -0.302890      0.359609      0.011034
Pb       4.08212      3.58716      8.45565        -0.748845      1.047076      0.492562
Pb       3.79877     15.07859      8.64867        -0.239714     -0.013939     -0.630439
Pb       0.02395      3.76755      8.45760         0.114398      0.157261      0.174986
Pb      15.19212     15.07704      8.66196         0.211819      0.069711     -0.555950
Pb       3.75083      3.82896     12.76052        -0.313232     -0.202641     -0.167024
Pb       3.68980     15.15407     12.80471         0.047203     -0.154321     -0.213031
Pb       0.03059      3.66824     12.71450         0.247030      0.143219      0.001017
Pb       0.00579      0.02751     12.79731         0.232834      0.117148     -0.307574
Pb       3.77506      7.49308      4.24477        -0.050257      0.186957      0.021024
Pb       3.90412      7.61006      0.18448        -0.265555      0.099754     -1.110119
Pb      15.16162      7.56767      4.11296        -0.031210      0.702019      0.378244
Pb       0.03018      7.55440     16.87066         0.028363      0.070790      0.575463
Pb       3.83042      7.61353      8.38346        -0.097224     -0.261314      0.644664
Pb      15.08443      7.48511      8.40556         0.509826      0.376213      0.176869
Pb       3.68586      7.50857     12.66901         0.472171      0.311485      0.374243
Pb      15.11295      7.52897     12.62064         0.599998     -0.030711      0.914410
Pb       3.58369     11.42247      4.26893         0.272139      0.403963      0.023022
Pb       3.92250     11.34754      0.23123        -0.135663     -0.388526     -0.723805
Pb      15.06370     11.46812      4.22935         0.372819      0.129470      0.248342
Pb       0.05093     11.43596      0.02547         0.067166     -0.078896     -0.240054
Pb       3.87589     11.39122      8.50208        -0.459904     -0.042272      0.191357
Pb      15.05071     11.28196      8.55134         0.653295      0.546303     -0.119294
Pb       3.59431     11.22013     12.91170         0.558903      0.645716     -0.807914
Pb      15.11947     11.26308     12.70462         0.311875      0.509979      0.160374
Pb       7.44324      3.62879      4.12319         0.785253      0.662320      0.363811
Pb       7.57461      3.80900     16.96252         0.368446     -0.116955      0.248649
Pb       7.53448     15.14440      4.31957        -0.007630     -0.289880     -0.539335
Pb       7.62131     15.08269      0.03652        -0.096865      0.338125     -0.145480
Pb       7.75247      3.78968      8.32307        -0.432495      0.264345      0.609299
Pb       7.59728     15.13419      8.38316        -0.141111     -0.218311      0.386583
Pb       7.48347      3.81246     12.73400         0.393666      0.094112     -0.252239
Pb       7.64653      0.16486     12.68833        -0.291229     -0.716733     -0.243970
Pb       7.69996      7.45495      4.39102        -0.255105      0.472238     -0.616981
Pb       7.46348      7.67943     16.90935         0.528107     -0.269899      0.311359
Pb       7.62953      7.64215      8.42203        -0.433341     -0.665953      0.705969
Pb       7.56703      7.62946     12.80727        -0.095820      0.001174     -0.588963
Pb       7.52131     11.18331      4.21745         0.119291      0.515915      0.011539
Pb       7.78602     11.46147     16.94016        -0.836637     -0.339283      0.391181
Pb       7.51614     11.46662      8.40307        -0.186800      0.081561      0.332171
Pb       7.50593     11.27561     12.68755        -0.265384      0.286980     -0.144653
Pb      11.36919      3.78614      4.14437        -0.056386     -0.039796      0.103622
Pb      11.41672      3.73997      0.02975        -0.329274      0.071253      0.148973
Pb      11.43372     15.14874      4.26910        -0.439468      0.116306      0.321716
Pb      11.42493     15.00361     16.93348        -0.302510      0.841720      0.186472
Pb      11.43373      3.74236      8.45892        -0.311327      0.104722      0.016628
Pb      11.34127      0.01673      8.39300        -0.393300     -0.243825     -0.157418
Pb      11.33509      3.79490     12.79177         0.322013     -0.146751     -0.135443
Pb      11.42808      0.05767     12.71272        -0.173630     -0.180409      0.230534
Pb      11.47545      7.61003      4.14055        -0.109290      0.029471      0.656810
Pb      11.24808      7.47764     16.89722         0.297343      0.531765     -0.184370
Pb      11.33054      7.54923      8.34724         0.364430      0.236811      0.973126
Pb      11.29033      7.51456     12.59287         0.111092      0.560397      0.514843
Pb      11.40103     11.25170      4.24825        -0.148119      0.789852      0.582872
Pb      11.42590     11.51713     16.88492        -0.264090     -0.562960     -0.019571
Pb      11.44837     11.44518      8.61298        -0.313048     -0.008885     -0.607589
Pb      11.36517     11.35266     12.71672         0.196978      0.066762      0.642083
Ti       1.96286      1.93497      2.27151        -1.137406      0.252441     -0.397856
Ti       1.91299      1.85176     15.11741         0.357981      1.918937     -0.245659
Ti       1.87839     13.39865      2.15669        -0.044570     -0.391312      1.087883
Ti       1.92556     13.32214     15.04888        -0.676560     -0.911555     -0.444122
Ti      13.29490      1.93970      2.32425         0.656330      0.415400     -1.200105
Ti      13.27149      1.95325     15.03275         0.299749     -0.845911     -0.594267
Ti      13.26522     13.38443      2.28293         0.308285     -0.532430      0.263471
Ti      13.26008     13.28689     14.92529        -0.010050      0.324839     -0.800415
Ti       1.89539      1.93699      6.62796         0.351720     -1.383484     -0.804511
Ti       1.80814     13.24274      6.60271         0.045099      1.111213     -1.343205
Ti      13.30470      1.88995      6.56504         0.097662     -0.146836     -1.128192
Ti      13.22857     13.35522      6.45406         0.158243     -0.159651      0.289973
Ti       1.91985      1.88413     10.67315        -0.561161     -0.229746      0.612497
Ti       1.80753     13.24103     10.80592         1.082512     -0.236161     -0.117248
Ti      13.24438      1.87611     10.63866         1.204284      0.197000      0.040361
Ti      13.22525     13.36363     10.80691         0.274956     -1.083609     -0.123760
Ti       1.88677      5.71377      2.21370        -0.479208     -0.040869     -0.218587
Ti       1.91699      5.68391     14.95373         0.588537     -0.224472      0.383700
Ti      13.26085      5.76223      2.18545         1.845947     -0.776899     -1.712635
Ti      13.37962      5.68159     14.99817        -0.432031      0.344446      0.012850
Ti       1.95553      5.69163      6.51095         0.373534      0.715247      0.495255
Ti      13.27115      5.66582      6.46379         1.149611      0.162696     -0.669605
Ti       1.93983      5.68513     10.59949        -0.081560     -0.355697      0.837523
Ti      13.36497      5.64510     10.71588        -0.332056     -0.094278      0.081494
Ti       1.81894      9.61296      2.36076        -0.461257     -0.155135     -0.416007
Ti       1.88453      9.51880     15.05598         0.326912     -0.636847      2.216666
Ti      13.21913      9.59229      2.08149         0.861464     -0.302569      2.494343
Ti      13.30150      9.51610     14.96748        -0.331154     -0.728989     -0.348167
Ti       1.81406      9.50586      6.45147         0.402716     -0.343857      0.778652
Ti      13.24651      9.55116      6.52195        -0.494011     -0.352657      0.335638
Ti       1.88541      9.45288     10.63115         0.226641      0.214326      0.175787
Ti      13.29395      9.47073     10.77641        -0.436110      0.410930     -0.786617
Ti       5.66993      1.81172      2.25433         0.500460      0.447790     -0.937001
Ti       5.74366      1.87275     14.98226        -0.649722      0.181128      1.381322
Ti       5.65246     13.29669      2.30764         0.527481     -0.468498      0.431815
Ti       5.65665     13.31118     14.93684        -0.503522     -0.684553     -1.188075
Ti       5.72463      1.83640      6.46962        -0.887664     -0.363745     -0.362727
Ti       5.54139     13.23444      6.36776         0.849052      0.222002      0.735622
Ti       5.67304      1.90266     10.78773         0.490903     -0.163747     -0.500457
Ti       5.59593     13.34006     10.83056        -0.371880     -1.130380     -0.230991
Ti       5.68771      5.70110      2.24725         0.635083      0.432837     -0.048460
Ti       5.72782      5.66586     14.86137        -0.565827      0.675955      1.156711
Ti       5.77306      5.67727      6.49727        -0.151217     -0.396245      0.976060
Ti       5.74667      5.71023     10.77086        -0.279716      0.704315      0.167025
Ti       5.63963      9.47006      2.35021         0.875410      0.057726     -0.892396
Ti       5.63270      9.51854     14.98422        -0.066896     -0.269312      0.920678
Ti       5.62458      9.42167      6.42463        -0.237584      0.352343      0.389909
Ti       5.61815      9.50887     10.70268         0.156502     -0.327164      0.692754
Ti       9.56707      1.81658      2.25648        -0.845006      0.948400     -0.122124
Ti       9.50613      1.91462     14.97047         0.129561     -0.162031      0.821773
Ti       9.47782     13.26140      2.30145        -1.082733     -0.374811     -0.289240
Ti       9.38775     13.37625     14.83895         0.390849     -0.585257      0.903574
Ti       9.46728      1.89120      6.35060         0.602689     -0.336870      1.762600
Ti       9.39795     13.23801      6.35469         0.334084      0.494093     -0.307976
Ti       9.50974      1.92905     10.66798        -1.283438     -0.406082     -0.685333
Ti       9.39759     13.22049     10.78027        -0.650707      1.048325     -0.303499
Ti       9.46422      5.74464      2.23708         0.024415     -1.261399     -0.966493
Ti       9.48004      5.69818     14.94602        -0.089363      0.505144      1.744500
Ti       9.58605      5.67588      6.41618        -1.044889      0.178118      0.228975
Ti       9.53720      5.64044     10.72468        -1.600671      0.406407     -0.815105
Ti       9.48328      9.43945      2.27739        -1.371324      0.388584     -0.613593
Ti       9.43219      9.54969     14.98269         1.177070     -0.734428     -1.268767
Ti       9.44645      9.50469      6.54154        -0.071320     -0.009841     -0.950912
Ti       9.50771      9.53593     10.66238        -0.705843     -1.414420      1.351737
O       1.86469      1.99182      0.51759         0.183264     -0.590488     -0.465190
O       1.98404      1.90206     13.32693        -0.622792     -0.003106     -0.374155
O       1.86118     13.30059      0.38059         0.176305      0.394402     -0.265824
O       1.82071     13.30942     13.24511         0.108141      0.155896      0.304625
O      13.26318      2.03529      0.48516        -0.072890     -0.512828      0.435940
O      13.31982      1.87022     13.23082         0.008030      0.158085     -0.299592
O      13.24509     13.31838      0.50919        -0.342410     -0.038272     -0.387388
O      13.12884     13.32632     13.12321         0.872454      0.225987      0.283614
O       2.01886      1.78236      4.78633        -0.634105      0.593375      0.545798
O       1.84162     13.41919      4.76675        -0.211160     -0.476016      1.437453
O      13.21867      1.87230      4.76416         0.037851      0.212895     -0.194201
O      13.23864     13.35209      4.69213         0.090542      0.199127     -0.577425
O       1.87398      1.93711      8.91970         0.176761     -0.130935     -0.880128
O       1.90116     13.23608      9.02756        -0.005225      0.172512     -0.755634
O      13.30248      1.73226      8.85036        -0.262057      0.549202      0.268101
O      13.21192     13.32296      8.99098        -0.321933      0.014351      0.302070
O       1.89572      5.63920      0.48191         0.203935      0.277830     -0.415874
O       1.92703      5.63775     13.16139        -0.164261     -0.126832      0.396339
O      13.38798      5.75278      0.35060        -0.388742     -0.204827      0.852840
O      13.49010      5.56879     13.22463        -0.652251      0.163524     -0.929684
O       1.94737      5.69325      4.69030        -0.182373      0.085324      0.073635
O      13.40719      5.70649      4.65351        -0.699180     -0.045845      0.392654
O       1.79649      5.86312      8.85376         0.228062     -0.820764     -0.177974
O      13.41513      5.74057      8.96328        -0.401007     -0.393661     -0.326592
O       1.80660      9.75882      0.60794         0.069627     -0.433046     -0.424394
O       1.83664      9.47120     13.35541         0.025457      0.196805     -2.017998
O      13.15658      9.63683      0.37954         0.327826     -0.209540     -0.725564
O      13.43992      9.51329     13.10787        -0.583643     -0.070833      1.326234
O       1.72395      9.51222      4.65436         0.785233      0.177097      0.450707
O      13.21122      9.50736      4.77453        -0.158985     -0.011103     -0.031607
O       1.85281      9.53464      8.88414        -0.187869     -0.297597      0.211836
O      13.25114      9.51270      8.93408        -0.040641      0.366390      0.318987
O       5.65280      1.86849      0.44215         0.182335     -0.184632      0.853450
O       5.70610      1.94599     13.23283         0.140831     -0.216569     -0.920114
O       5.68662     13.37571      0.51125        -0.294027     -0.105316     -0.278620
O       5.57873     13.33900     13.11324         0.291666     -0.209028      1.357118
O       5.65165      1.85763      4.69958         0.128070      0.352550     -0.477266
O       5.67662     13.31374      4.63771        -0.105525     -0.402268     -0.933801
O       5.68026      1.84269      8.97994         0.013946      0.112341     -0.007894
O       5.57580     13.28680      8.97853         0.051016      0.208522      0.166936
O       5.59552      5.71487      0.47110         0.442502      0.218189      0.100751
O       5.70692      5.62906     13.11335        -0.172640      0.021218     -0.468661
O       5.76144      5.63596      4.76693        -0.251264      0.355500     -1.935277
O       5.72967      5.70837      9.02111         0.145838     -0.024175     -0.880553
O       5.62065      9.37290      0.50492         0.062687      0.463420      0.198669
O       5.52094      9.54121     13.24403         0.470760      0.139570     -0.654669
O       5.55182      9.33003      4.66031         0.202465      0.320669     -0.536052
O       5.63607      9.37179      8.94446         0.144589      0.332583     -0.048735
O       9.70487      1.98318      0.51032        -0.588110     -0.566278     -0.736975
O       9.53789      1.86415     13.20723        -0.241740     -0.018305     -0.622872
O       9.40060     13.17215      0.41465         0.284812      0.574194      0.867448
O       9.35292     13.32488     13.11092         0.216372      0.328682     -0.982098
O       9.52482      1.86514      4.64334         0.032460     -0.049547     -1.528438
O       9.29300     13.36366      4.55025         0.468072     -0.641209      0.737674
O       9.50256      1.99413      8.84044         0.062314      0.044166      0.877964
O       9.33261     13.17413      8.97494         0.507906      0.061754      0.584890
O       9.53008      5.74922      0.41866        -0.068981      0.081745      0.749370
O       9.49497      5.81271     13.22050         0.103179     -0.304197     -1.564222
O       9.51383      5.74606      4.66476         0.221764      0.169670     -0.820770
O       9.56173      5.62372      8.92507        -0.053974     -0.501114      0.155383
O       9.40368      9.42874      0.49574         0.312142      0.327660     -0.255405
O       9.42787      9.43717     13.16861         0.341866     -0.101355      0.323784
O       9.45951      9.45185      4.72335        -0.089118      0.036519      0.605896
O       9.45421      9.57954      8.92621         0.041192      0.058771     -1.045996
O       3.80488      1.91335      2.74394         0.012144      0.380461     -0.613447
O       3.79609      2.01021     15.43507         0.613037     -0.817548     -0.195793
O       3.70052     13.13110      2.69265         0.802813      0.775310     -0.823992
O       3.77834     13.51011     15.31068         0.045091     -0.482512      0.142416
O      15.18574      1.95451      2.61838        -0.248716     -0.742726      0.171373
O      15.14799      1.88188     15.41571         0.366410      0.139680      0.051383
O      15.17766     13.44497      2.50260        -1.121973      0.141356      0.217755
O      15.09513     13.29897     15.34987         0.880511      0.292669      0.051968
O       3.84583      1.82687      6.92459        -0.027211      0.289960      0.010845
O       3.70613     13.15802      6.85941         0.502235      0.714878      0.012749
O       0.00621      1.90670      6.80838         0.064317      0.356864      0.247716
O      15.14713     13.33833      6.96395        -0.310309     -0.419525     -0.084215
O       3.79571      1.88385     11.13195         0.293749     -0.011525     -0.117897
O       3.67626     13.37474     11.21469         0.997673      0.010993     -0.247534
O      15.19456      1.94202     11.05572        -0.389738     -0.348610      0.101939
O      15.17415     13.31551     11.01505        -1.101764     -0.205015      0.546496
O       3.76796      5.59892      2.63396         0.027847      0.635152     -0.042809
O       3.89836      5.71869     15.34732        -1.057571     -0.461530     -0.105031
O      15.18063      5.74264      2.55603         0.384647     -0.241334      0.436474
O       0.05441      5.83131     15.31958        -0.143154     -0.976798     -0.010483
O       3.90657      5.77741      6.86865        -1.666152     -0.590307     -0.325388
O      15.19920      5.68078      6.76239         0.160099     -0.067333      0.173865
O       3.74060      5.64206     11.11684         0.544029     -0.078861     -0.277028
O       0.02949      5.74788     11.05084        -0.568632     -0.510790     -0.131371
O       3.72516      9.71345      2.50734        -0.279058     -0.313111      0.624554
O       3.78829      9.54403     15.46490        -0.200573     -0.114249      0.078890
O      15.08986      9.63724      2.77326        -0.506051     -0.513613     -1.149272
O      15.19477      9.54439     15.48300        -0.327960      0.276361     -0.350549
O       3.81108      9.52227      6.92162        -1.145609     -0.594171     -0.657518
O      15.11413      9.62721      6.84536         0.100507     -0.805478     -0.144214
O       3.72621      9.49112     11.15828         0.200222     -0.251377     -0.212683
O      15.19378      9.47070     11.12412         0.380325      0.072200     -0.475950
O       7.57947      1.85928      2.63401        -0.524970     -0.261391     -0.326489
O       7.66884      1.82678     15.40160        -0.905871      0.302320     -0.059689
O       7.53195     13.47161      2.57522        -0.118496     -0.546227     -0.086969
O       7.49418     13.41735     15.23779         1.289331     -0.400718      0.414515
O       7.57436      1.90666      6.76282         0.670274     -0.037794      0.108036
O       7.59067     13.24888      6.86575        -1.279151      0.201175     -0.183078
O       7.59156      1.92077     11.03140         0.034086      0.043593      0.452828
O       7.45641     13.16420     11.08443         1.914722     -0.032484      0.140281
O       7.62332      5.82700      2.53899        -0.982766     -0.112117      0.191832
O       7.57613      5.78749     15.24417         0.455221     -0.609806      0.333464
O       7.68203      5.72215      6.84318        -0.169822      0.091401      0.034315
O       7.59858      5.68698     11.13665         0.680711      0.274591      0.103712
O       7.54688      9.34926      2.65425        -0.233260     -0.429401      0.313779
O       7.59563      9.51154     15.23087        -1.110992      0.249629      0.456782
O       7.46312      9.37707      6.87121         1.524565      0.592687     -0.309856
O       7.58041      9.39906     11.12979        -0.040003      0.827951     -0.294345
O      11.39573      1.99086      2.54348        -0.173210      0.069934      0.889267
O      11.40966      1.99669     15.15529        -0.874460     -0.181483      0.820318
O      11.30243     13.19589      2.59564         0.136574     -0.017984      0.045985
O      11.35050     13.22695     15.25338        -0.351873      0.490737      0.300088
O      11.38212      1.92349      6.83142        -0.391474     -0.126924      0.155167
O      11.27506     13.40054      6.70706         0.776263     -0.358507      0.478648
O      11.35554      1.88618     11.05311         0.607643     -0.116478      0.029887
O      11.32194     13.25032     11.18032         0.401579      0.697452     -0.616543
O      11.51331      5.74207      2.43403        -3.086204     -0.124561      0.726937
O      11.40361      5.83114     15.18672        -0.155319     -0.342913      0.217612
O      11.44023      5.62350      6.81247        -0.542496     -0.010172      0.214924
O      11.35852      5.60594     11.07881         1.350157     -0.033740      0.402710
O      11.36852      9.56191      2.71787         0.175623     -0.344892     -0.867440
O      11.38336      9.52884     15.31273         0.249175     -0.067758     -0.168404
O      11.29322      9.53681      6.86743         0.955475      0.078608      0.219329
O      11.42180      9.64575     11.11271        -0.325233     -1.254434     -0.300517
O       1.78844      3.77652      2.60449         0.562741      0.938927      0.537445
O       1.87462      3.82220     15.42538        -0.172754      0.106580     -0.272594
O       1.88798      0.04883      2.67099         0.336981     -0.221671     -0.410146
O       1.79545      0.01941     15.32300         0.067984     -0.514414      0.578041
O      13.24773      3.81280      2.67129         0.426147      0.515177     -0.109674
O      13.23388      3.80117     15.37278         0.545269      0.660363     -0.013822
O      12.99541      0.03275      2.58212         0.991454     -0.162501     -0.151289
O      13.19591     15.19794     15.36007         0.122281     -0.176444      0.132034
O       1.97259      3.85616      6.82474        -0.102440     -0.701661      0.242507
O       1.93713      0.02976      6.95713        -0.219495     -0.776859      0.254282
O      13.29260      3.82374      6.98999         0.200719     -0.595588     -0.333690
O      13.29984      0.01157      6.82433        -0.300316     -0.159434      0.309644
O       1.84810      3.71667     11.01452         0.245968      1.606407      0.246630
O       1.87415     15.19352     11.05053        -0.290568      0.281648      0.356913
O      13.25270      3.71656     10.95325         0.144807      1.190200      0.225942
O      13.46715      0.04522     11.08965        -1.261331     -0.635165      0.198786
O       1.84115      7.66063      2.53463         0.427454     -0.232428      0.221347
O       1.93694      7.57439     15.37081         0.046651      0.658942      0.299696
O      13.28450      7.63586      2.56671         0.067533      1.035434     -0.268443
O      13.41636      7.59100     15.28090        -0.600537      1.135400     -0.050626
O       1.89080      7.59419      6.87925        -0.213171      0.801056     -0.661849
O      13.19145      7.51632      6.88217         0.395943      1.272652     -0.377735
O       1.95262      7.56053     11.10931        -0.603315      0.337945     -0.398326
O      13.24667      7.61346     11.00629        -0.082541     -1.074930      0.413379
O       1.72076     11.58440      2.68290        -0.050695     -1.297394      0.209538
O       1.92250     11.43871     15.43718        -0.050335      0.256116     -0.332791
O      13.18764     11.45375      2.71475         0.428912     -0.209712     -0.647771
O      13.26542     11.42883     15.35923         0.150243     -0.439710     -0.315490
O       1.88500     11.31105      6.97791        -0.327739      0.913871     -0.706555
O      13.19725     11.47651      6.77361        -0.109006     -0.727787      0.558969
O       1.95072     11.33832     11.16209        -0.741148     -0.119180     -0.028072
O      13.29747     11.40250     11.13617         0.211160      0.444666     -0.364884
O       5.69346      3.84484      2.52250         0.144786     -0.934485      0.326261
O       5.80201      3.79138     15.39059        -0.074425     -0.108793     -0.259638
O       5.57434     15.17420      2.59635        -0.251770      0.521932      0.005417
O       5.73509      0.00645     15.36753        -0.463684      0.363030      0.109911
O       5.71303      3.77153      6.79927         0.145121     -0.348899      0.362294
O       5.71063     15.10063      6.64559        -0.034486      0.746559      0.883497
O       5.73391      3.85114     11.11178        -0.442450     -1.534837      0.058329
O       5.79683     15.19158     11.07508        -0.548056      0.819454      0.237495
O       5.52386      7.60948      2.54871        -0.488372     -1.165715      0.483755
O       5.72587      7.56936     15.31049        -0.346056      0.764692     -0.059450
O       5.68239      7.52538      6.82965         0.224251      1.030694      0.109811
O       5.63977      7.60162     11.22235        -0.049576      0.156497     -0.252545
O       5.76552     11.34456      2.59169        -0.057504      0.922378      0.080256
O       5.66537     11.40978     15.44627        -0.040275      0.685514     -0.362995
O       5.58668     11.37015      6.71608         0.836716     -0.451835      0.308950
O       5.57692     11.39478     11.04733         0.125998     -0.774707      0.194318
O       9.39317      3.80555      2.56551         0.517228      0.620522      0.302919
O       9.42869      3.81513     15.46122         0.378380      0.208580     -0.847231
O       9.45937     15.16511      2.59563         0.578680      0.067945     -0.328975
O       9.52055     15.19329     15.38106         0.263632      0.204333     -0.165542
O       9.49069      3.82872      6.59366         0.007084     -1.110315      0.797511
O       9.42146     15.18302      6.79272        -0.053882      0.317097     -0.000588
O       9.36744      3.75790     11.27198         1.010581      0.246757     -0.647451
O       9.41250      0.00254     10.95580         0.135233     -0.145778      0.317626
O       9.51670      7.59765      2.71650         0.559475     -0.498239     -0.173825
O       9.37479      7.65952     15.41137         0.706629     -0.676220     -0.310130
O       9.56168      7.56736      6.85442        -0.400908      0.455566     -0.077891
O       9.52096      7.56199     10.91545         0.480831      0.384843      0.586199
O       9.15500     11.27935      2.53180         1.029285      1.561349      0.263071
O       9.41160     11.47469     15.14841        -0.075347     -0.351583      0.686725
O       9.36917     11.38951      6.78005         0.261480     -0.311692      0.033898
O       9.62570     11.33832     11.13714        -1.366762      0.880218     -0.170483
