  # total energy = -7867.93673633 
CRSYTAL
PRIMVEC
    15.010000000000000    0.0000000000000000    0.0000000000000000
     0.0000000000000000   15.010000000000000    0.0000000000000000
     0.0000000000000000    0.0000000000000000    16.400000000000000
PRESSURE
16.3724 16.6041 6.31531 -0.127384 0.041706 0.092878
PRIMCOORD
320 1
Pb       3.86233      3.76965      4.33283        -0.510134     -0.631000     -0.643316
Pb       3.79287      3.77331      0.16189        -0.011661     -0.037439     -0.488186
Pb       3.67988      0.08770      4.12167         0.020560     -0.209285      0.087519
Pb       3.65590      0.01346      0.00584         0.305043     -0.312408     -0.506122
Pb       0.01689      3.69398      4.04696        -0.321483     -0.377058     -0.068435
Pb       0.06074      3.80378     16.38774        -0.146759     -0.041564     -0.262462
Pb       0.08834     14.98161      4.07007        -0.348696      0.331129     -0.100962
Pb      14.92847      0.02368      0.00330         0.291957     -0.250890      0.357379
Pb       3.85189      3.73461      8.28914        -0.301303     -0.345295     -0.660672
Pb       3.76515     14.81264      8.31291         0.403922     -0.049287     -0.345433
Pb       0.16436      3.78592      8.28416        -0.507116     -0.285278     -0.644103
Pb       0.09356     14.94217      8.28795        -0.409088     -0.079481     -0.963107
Pb       3.70582      3.79124     12.25987         0.262976     -0.765986      0.274103
Pb       3.75697     14.96658     12.45917         0.448982      0.286645     -0.395327
Pb       0.07822      3.74017     12.28469        -0.307442      0.166923      0.024910
Pb       0.02204      0.00523     12.33385        -0.265601      0.248050     -0.272292
Pb       3.57489      7.45620      4.13410         0.579425      0.382329     -0.403468
Pb       3.70033      7.37491      0.18556        -0.013117      0.541788     -0.757290
Pb      14.83809      7.46500      4.09420        -0.021076      0.383689      0.111241
Pb      14.90529      7.55043      0.00429         0.775407      0.072069     -0.133625
Pb       3.72106      7.46876      8.16883         0.438149      0.285127     -0.291874
Pb      14.95321      7.46256      8.25121        -0.277186      0.316593     -0.880887
Pb       3.74632      7.55659     12.31781         0.363591      0.070108      0.055775
Pb       0.06115      7.41897     12.35257        -0.298910      0.113129     -0.011819
Pb       3.55846     11.38528      4.11690         0.804668     -0.741033      0.023224
Pb       3.68344     11.21336     16.32861        -0.184904      0.015434      0.253697
Pb      14.90688     11.32407      4.08152         0.130614     -0.236059     -0.197340
Pb      14.87059     11.27798     16.39404         0.114094     -0.337266     -0.016825
Pb       3.67593     11.17246      8.32404         0.161770      0.436348     -0.107805
Pb      14.93410     11.16439      8.30074        -0.028022      0.359466     -0.410221
Pb       3.68454     11.31468     12.37714         0.210756     -0.409730     -0.490029
Pb      14.97587     11.28635     12.35606        -0.237724     -0.825448     -0.490209
Pb       7.57002      3.61659      4.22123        -0.584943      0.325975     -0.109773
Pb       7.54702      3.78308      0.01254        -0.136725     -0.035497      0.225175
Pb       7.48577      0.01998      4.20652         0.013973     -0.382024      0.114423
Pb       7.46325      0.09758      0.06532        -0.188055     -0.472126     -0.621908
Pb       7.56964      3.69814      8.23985         0.052243      0.244121     -0.503965
Pb       7.57271     14.89090      8.31693        -0.625042     -0.097871     -0.448019
Pb       7.59191      3.70273     12.27030        -0.267967     -0.206058     -0.030660
Pb       7.57806     14.93364     12.46356        -0.450595      0.193109     -0.191509
Pb       7.35229      7.56297      4.13358        -0.289533     -0.256178     -0.201087
Pb       7.48442      7.52775      0.09875         0.093219     -0.321029     -0.507884
Pb       7.44149      7.54342      8.32044        -0.037924     -0.242512     -0.596725
Pb       7.51017      7.39582     12.47344         0.385270      0.283023     -0.328867
Pb       7.37197     11.34148      4.07674         0.085197     -0.361913      0.437692
Pb       7.51995     11.24951      0.06612        -0.204788     -0.245525     -0.025082
Pb       7.34786     11.16134      8.35078         0.424219      0.380847     -0.757781
Pb       7.49284     11.13430     12.44450         0.201511      0.290885      0.091078
Pb      11.20788      3.71448      4.12149         0.403038     -0.311096     -0.371736
Pb      11.23937      3.74696     16.39867         0.024146     -0.069858      0.059712
Pb      11.23683      0.06753      4.19184         0.680116      0.102733     -0.312002
Pb      11.13299      0.02612      0.10693         0.442401     -0.077231     -0.324202
Pb      11.31818      3.78920      8.17366        -0.013474     -0.283133     -0.488005
Pb      11.24273     14.90244      8.29493         0.381261     -0.215015     -0.566565
Pb      11.34014      3.75141     12.28542         0.133343     -0.228631      0.171668
Pb      11.30503      0.09803     12.28946        -0.421744     -0.452405     -0.217676
Pb      11.15845      7.45618      4.15283         0.789169      0.064155     -0.371802
Pb      11.18381      7.53167      0.10664        -0.067150     -0.186120     -0.422973
Pb      11.16648      7.50405      8.20327         0.422336      0.249676     -0.307601
Pb      11.37994      7.45133     12.31478        -0.747867      0.293828     -0.067258
Pb      11.20545     11.26585      4.16018         0.327281      0.278487     -0.198124
Pb      11.23958     11.17993      0.05197         0.413701      0.405416     -0.364097
Pb      11.07818     11.08674      8.28282         0.398798      0.707170     -0.497689
Pb      11.28393     11.24650     12.28656        -0.197614     -0.195054     -0.174600
Ti       1.87464      1.91560      2.08261         0.368392     -0.598482     -0.126001
Ti       1.90382      1.89932     14.42409         0.418879      0.375739      0.309812
Ti       1.86810     13.09776      2.01006        -0.318839      0.240634     -0.289016
Ti       1.76310     13.12565     14.32668         1.133677      0.105405      0.454298
Ti      13.16500      1.85645      1.95453        -1.458045      0.573567      0.923258
Ti      13.17837      1.84015     14.33822        -0.526327      0.791811      1.292964
Ti      13.07968     13.15422      2.01330         0.366138      0.257608     -0.412589
Ti      13.10070     13.18236     14.26444        -0.992022     -1.388973      0.910860
Ti       1.87754      1.83917      6.27994        -0.298785     -0.182272     -1.028825
Ti       1.87545     13.06270      6.21519         0.224203      0.608203     -0.160705
Ti      13.19504      1.85429      6.15723        -0.850495      0.215078     -0.546029
Ti      13.15251     13.14329      6.13517        -0.820925      0.022780      0.318005
Ti       1.90095      1.78128     10.26828         0.165293      1.359166     -0.231077
Ti       1.80422     13.12650     10.33737         1.356603     -1.458182     -0.902393
Ti      13.15451      1.81293     10.18204        -0.281128      0.616148      0.057598
Ti      13.13279     13.07995     10.20514        -0.925365     -0.946791     -0.275171
Ti       1.79411      5.62648      2.10682         0.486784     -0.031380     -0.802317
Ti       1.91884      5.65266     14.38354        -0.136155      0.306493      0.428454
Ti      13.11010      5.57980      2.02866        -0.685412      0.318294      0.124784
Ti      13.12180      5.61189     14.42647         0.206773     -0.622352     -0.885191
Ti       1.81174      5.64694      6.09080         0.040040     -0.996461      0.323448
Ti      13.11557      5.57217      6.09123        -0.018141      1.130658      0.332498
Ti       1.98660      5.63926     10.25327        -1.195435     -0.535872      1.030741
Ti      13.15880      5.56621     10.21191        -0.431217      0.545530      1.429248
Ti       1.71841      9.37189      2.07386         0.612080      0.556301     -0.212909
Ti       1.90134      9.38408     14.24938        -0.611341     -0.783447      0.599363
Ti      13.03981      9.39125      2.13485         0.311694     -0.607137     -0.375711
Ti      13.13074      9.33375     14.34695         0.347319      1.131736      0.181293
Ti       1.79233      9.39088      6.09595        -0.405920     -0.671857     -0.064253
Ti      13.07725      9.41810      6.20938         0.015180     -1.115126     -0.462602
Ti       1.80460      9.31567     10.19985         0.855437      1.327549      0.629684
Ti      13.11186      9.31645     10.21186        -0.004611      1.008401      0.366291
Ti       5.57704      1.77681      2.06028        -0.069214      1.290170     -0.061225
Ti       5.63220      1.95058     14.29137        -0.112919     -1.343103      0.165570
Ti       5.62543     13.12317      2.10657        -1.293089     -0.930961     -0.870189
Ti       5.61332     13.07394     14.42415         0.159366      1.359008     -0.285606
Ti       5.67219      1.74535      6.30429        -0.788481      0.982405     -0.135917
Ti       5.68015     13.08615      6.17053        -0.820761      0.247494      0.429354
Ti       5.66139      1.81854     10.22245         0.219415     -1.296662      0.744460
Ti       5.67550     13.07047     10.45270        -1.034477      0.749604     -1.094958
Ti       5.61690      5.56145      2.14574        -0.476410     -0.461272     -0.453295
Ti       5.61392      5.61299     14.39588         0.515080      0.424133      0.205209
Ti       5.58899      5.53748      6.22476         0.935682      0.472057     -0.635423
Ti       5.66986      5.56440     10.28295         0.840673      1.045122     -0.021492
Ti       5.48861      9.39341      2.08375         0.223877     -0.052220      0.028366
Ti       5.59863      9.36509     14.45220         0.113387     -0.605766      0.047318
Ti       5.56769      9.36700      6.17409         0.612607     -0.182435     -0.517505
Ti       5.62702      9.35958     10.38254        -0.955723     -1.229665     -0.146361
Ti       9.29550      1.82733      2.17424         1.798255      1.206941     -0.731829
Ti       9.42071      1.84523     14.36428        -0.657357      0.043964     -0.451585
Ti       9.34405     13.14621      2.04341         0.006865     -0.469660     -0.027456
Ti       9.37160     13.11879     14.43094         0.412869     -0.005596     -0.450770
Ti       9.44137      1.84561      6.25685        -0.294138      0.354263     -0.476401
Ti       9.44309     13.11814      6.10890        -0.206110     -0.670817      0.645332
Ti       9.38433      1.79000     10.27825        -0.307238      0.476709      0.159727
Ti       9.35376     13.07562     10.22721         0.881609     -0.493882      0.749291
Ti       9.33416      5.63826      2.12386         0.337260     -0.751686     -0.903061
Ti       9.38853      5.55256     14.29738         0.043184      0.963197      0.962761
Ti       9.36675      5.66578      6.11861        -0.616558     -0.833727      1.335662
Ti       9.43104      5.57404     10.15612        -1.252909      0.746363      0.781039
Ti       9.31636      9.40528      2.15660        -0.508206     -0.113468     -1.064804
Ti       9.44657      9.39254     14.41839        -0.298430     -0.866959     -0.715741
Ti       9.31873      9.35544      6.06749         0.019986      0.834798      1.362377
Ti       9.32403      9.34050     10.38137         0.997311     -0.545512      0.499304
O       1.92330      1.91440      0.21073         0.081362     -0.047291      0.284587
O       1.93679      1.77246     12.59898        -0.151026      0.287476     -1.147284
O       1.84281     13.00486      0.18285         0.041636      0.257737     -0.615793
O       1.83315     13.13720     12.44578        -0.349705      0.149856      0.418378
O      13.12963      1.87919      0.11721         0.208822     -0.362007      0.432195
O      13.15659      1.82829     12.55927        -0.124542     -0.176515     -1.399434
O      13.15246     13.23650      0.16876         0.284213     -0.286449      0.116895
O      13.17290     13.09920     12.41181        -0.219300      0.194124      0.556731
O       1.82863      1.80178      4.32963        -0.146913     -0.013843      0.547997
O       1.87126     13.07712      4.28982        -0.564526      0.273523      0.319870
O      13.14908      1.87279      4.25494         0.029880      0.120684      0.931262
O      13.01029     13.18534      4.24877         0.336424     -0.402963      0.337943
O       1.81339      1.90112      8.42153        -0.357581     -0.160013      0.432093
O       1.92550     13.10043      8.41385         0.011421     -0.218526      0.457128
O      13.22646      1.87814      8.37460        -0.375775      0.016761      0.703960
O      13.03974     13.08011      8.38062         0.480527      0.341949      0.209852
O       1.80658      5.65524      0.19375         0.024166     -0.067744      0.593991
O       1.87832      5.59384     12.53976         0.417107      0.221330     -0.689661
O      13.22497      5.55674      0.19711        -0.297533      0.171039     -0.856406
O      13.03722      5.75290     12.50770         0.456820     -0.798045      0.577656
O       1.90429      5.57585      4.26394        -0.187595      0.282950      0.034403
O      13.08274      5.58702      4.27278         0.278112     -0.047918      0.057437
O       1.97847      5.59483      8.46979        -0.411266      0.147287     -0.761047
O      13.10686      5.57561      8.43939        -0.130564      0.111564     -0.636408
O       1.71135      9.35457      0.26294         0.378344      0.181116     -0.297702
O       1.89137      9.38835     12.40859         0.073475     -0.282858      0.455610
O      12.98588      9.40093      0.25797         0.640584     -0.357091     -0.019566
O      13.14675      9.42668     12.53536        -0.301981     -0.465450     -0.568785
O       1.66848      9.41315      4.24987         0.493089     -0.218766      0.804431
O      13.02098      9.36791      4.31651         0.253600      0.239345      0.025983
O       1.79388      9.38165      8.35534         0.427631     -0.324292      0.145201
O      13.17642      9.43598      8.38942        -0.151132     -0.449633     -0.252188
O       5.61663      1.84157      0.21156        -0.168773     -0.161708      0.642037
O       5.56847      1.83935     12.50024        -0.229269      0.061546     -0.491792
O       5.59801     13.09891      0.25092        -0.155598     -0.275732     -0.667574
O       5.75098     12.99783     12.48504        -0.575227      0.448006      0.448786
O       5.52115      1.90398      4.46401         0.526479     -0.613711     -0.905932
O       5.56298     13.14554      4.29812         0.212208     -0.132272      0.683753
O       5.78308      1.81749      8.37928        -0.308155      0.189113      1.034663
O       5.63153     13.11710      8.42636         0.136610     -0.508761      0.780322
O       5.60344      5.60551      0.21526         0.068990      0.017074      0.423234
O       5.83180      5.70490     12.52820        -1.058045     -0.550588      0.127285
O       5.53685      5.46838      4.27324         0.268152      0.563985      0.509726
O       5.64187      5.58012      8.43392        -0.419168     -0.013207     -0.010122
O       5.57109      9.43425      0.22096         0.110845     -0.140011      0.204244
O       5.52904      9.32711     12.60694         0.207499     -0.029657     -0.882568
O       5.70615      9.48909      4.34241        -0.368918     -0.915233      0.211014
O       5.70127      9.29374      8.50210        -0.167037      0.334155     -0.395318
O       9.27522      1.78773      0.24276         0.145437      0.498477      0.271768
O       9.44511      1.80328     12.45310         0.079303      0.064621      0.840254
O       9.20485     13.11380      0.16976         0.196090      0.110433      1.005792
O       9.38063     13.26952     12.56989         0.249454     -0.717797      0.384683
O       9.38314      1.85793      4.25958        -0.287540     -0.342217      0.876392
O       9.40591     13.12027      4.27588         0.109440      0.195249     -0.131822
O       9.27891      1.82528      8.43705         0.470304     -0.056769     -0.990952
O       9.38714     13.06207      8.41263        -0.238821      0.371992     -0.370245
O       9.35014      5.49033      0.26422         0.093662      0.200150      0.416632
O       9.28469      5.52376     12.49463         0.367634     -0.055531     -0.161734
O       9.32945      5.73335      4.32943        -0.236743     -0.292626     -1.299796
O       9.52203      5.54059      8.32110        -0.472514      0.279442      0.329621
O       9.40234      9.51145      0.21643        -0.079479     -0.702590      0.502196
O       9.51169      9.45185     12.55496        -0.216787     -0.200911      0.113853
O       9.37504      9.28763      4.26113        -0.208213      0.139520     -0.190875
O       9.37604      9.29457      8.55695        -0.469795      0.063831     -0.471278
O       3.75375      2.12176      2.45734         0.068771     -0.401967     -0.663491
O       3.76054      1.56658     14.58306         0.085395     -0.116184      0.137479
O       3.70218     12.80380      2.31278        -0.316954      0.158222     -0.323094
O       3.69548     13.29034     14.48134         0.224415      0.346623      0.235335
O      14.99362      1.69976      2.29241         0.373075     -0.280144     -0.021300
O       0.04837      2.09045     14.60133        -0.260893     -0.087454     -0.021276
O      14.98132     13.40899      2.15829         0.101145     -0.208787      0.675478
O      14.96004     12.74068     14.50032         0.331474      0.866696      0.058212
O       3.63991      1.91565      6.52739         2.018412      0.087569      0.059688
O       3.75664     13.00207      6.35588        -0.372394     -0.574816      0.249817
O      14.95812      1.65132      6.39124         1.179181      0.214745      0.216198
O      14.96880     13.26365      6.46355         0.226077     -0.206330     -0.295348
O       3.77606      2.03787     10.38817        -0.271866      0.224152      0.156364
O       3.75522     12.92162     10.58098        -0.339541     -0.357489     -0.355561
O      15.00215      1.64419     10.55079         0.367910      0.155959      0.006040
O      14.99195     13.37443     10.38138         0.187155      0.115099      0.367258
O       3.67423      5.31471      2.19172         0.296587      0.508492      0.363843
O       3.79322      5.92412     14.66109        -0.219004      0.024005     -0.359121
O      14.94027      5.75041      2.32683         0.866780      0.411612      0.331864
O       0.07439      5.38751     14.46154        -1.266990     -0.241687      0.408826
O       3.71889      5.39224      6.38964        -0.167049      0.506976      0.261903
O      14.98007      5.91138      6.41771         0.348325     -0.925063      0.006487
O       3.80347      5.33568     10.48299        -0.449588      0.199451      0.205887
O      14.97422      5.80781     10.52530         0.965653     -0.019534     -0.303729
O       3.63832      9.63439      2.38048         0.323772     -0.334541     -0.267662
O       3.72181      9.05413     14.67502         0.130354      0.355303     -0.031197
O      14.90140      9.05439      2.33819        -0.341818      0.488546     -0.149319
O       0.00726      9.51580     14.50408        -0.378012      0.522394      0.432820
O       3.73229      9.47678      6.38332        -0.536654     -0.041777      0.203149
O      14.95887      9.18380      6.42489         0.143211     -0.152808     -0.042884
O       3.71247      9.66126     10.46899         0.291886     -0.242696     -0.205474
O       0.00312      9.14020     10.43899        -0.366592     -0.506880      0.263571
O       7.49725      1.51472      2.33058        -1.571458      0.007639      0.228837
O       7.48303      2.16011     14.40982         0.792960      0.032149      0.623260
O       7.38642     13.38959      2.35523         2.255133      0.111857      0.123128
O       7.43960     12.78731     14.57481         1.211042     -0.131583     -0.011192
O       7.50820      1.56339      6.38445         0.669515      0.294443     -0.269163
O       7.52985     13.28894      6.32002         0.187159      0.442652      0.133313
O       7.55660      1.50597     10.59691        -1.010643      0.261737     -0.343898
O       7.52729     13.31045     10.52233        -0.180124      0.424658     -0.220313
O       7.43284      5.80655      2.22033         0.855582      0.551666      0.504038
O       7.54433      5.38607     14.65386        -0.491022     -0.286424     -0.158684
O       7.45395      5.73355      6.39900         0.942679     -0.142803     -0.046981
O       7.49565      5.92356     10.41778         0.318203     -0.334672     -0.015445
O       7.45832      9.14131      2.25146        -0.398605     -0.411067      0.188931
O       7.55716      9.62703     14.51559        -0.911319      0.025659      0.485595
O       7.50940      9.14723      6.39077        -0.138679     -0.045419      0.125568
O       7.50494      8.99567     10.60534        -0.715582      0.361324     -0.028724
O      11.26179      2.15229      2.28126        -0.306758     -0.421183     -0.348884
O      11.24643      1.62961     14.65661         0.480578     -0.460010     -0.284953
O      11.19010     12.81572      2.09193        -0.488344      0.142729      0.504617
O      11.26278     13.35696     14.76062        -0.217499      0.227733     -0.875004
O      11.27322      2.16630      6.31339         0.000234     -0.415369      0.426672
O      11.27290     12.91597      6.39654        -0.509700      0.237524     -0.127111
O      11.23260      2.06443     10.50195         1.195665     -0.068764     -0.125961
O      11.24850     12.77544     10.35284         0.030144      0.292785      0.683383
O      11.23908      5.37558      2.32213        -0.793357      0.056685     -0.143155
O      11.27604      5.81651     14.69553        -0.222650     -0.341347     -0.204134
O      11.24166      5.42857      6.28682         0.058354     -0.096033      0.353991
O      11.17060      5.27998     10.54035         1.781066      0.281170     -0.375818
O      11.20363      9.58907      2.32053        -0.520640      0.270152      0.192375
O      11.29893      9.08863     14.61139        -0.223354     -0.144398      0.216714
O      11.19904      9.44286      6.46711        -0.375909      0.306948     -0.169096
O      11.27664      9.62635     10.41645        -0.455569      0.131191      0.456198
O       1.64300      3.73561      2.25999        -0.437532      0.410821      0.070487
O       2.20924      3.79833     14.59269        -0.119221     -1.003521     -0.006608
O       2.05457      0.03480      2.18878         0.320879     -1.004014      0.405435
O       1.67665     14.97136     14.67015        -0.399062     -0.226364     -0.220796
O      13.33966      3.75527      2.16695         0.247532     -0.899525      0.434970
O      12.96106      3.67174     14.48856        -0.225279      1.358514      0.312933
O      12.89583     15.00397      2.20864        -0.370414      0.499357      0.202708
O      13.43549     14.98581     14.49831         0.235974     -0.255119      0.052900
O       1.78096      3.73166      6.36718        -1.074861      0.318820      0.302799
O       1.91409     14.90600      6.47036         0.150166      0.731880     -0.112721
O      13.32232      3.79225      6.45296         0.337623     -0.783006     -0.031011
O      12.90898      0.00887      6.40767        -0.228436     -0.191761     -0.112063
O       1.73151      3.74113     10.50081        -0.310056     -0.245335      0.245974
O       2.08366     14.99064     10.43965         0.012011     -0.074504      0.322407
O      13.34684      3.73301     10.54524        -0.169488     -0.591568     -0.034026
O      12.97581     14.95880     10.45481        -0.626486      0.701264      0.085456
O       1.97124      7.49917      2.31076         0.552709     -0.621913      0.321789
O       1.61727      7.55452     14.58878        -0.002697     -1.143383     -0.154490
O      12.87495      7.45911      2.26849        -0.222610      0.512165      0.162775
O      13.36130      7.43297     14.59666         0.144901      0.885698      0.086078
O       1.96717      7.44849      6.33807         0.786355      1.037083      0.194597
O      12.92773      7.51935      6.41815        -0.038974     -0.870654      0.057078
O       2.10285      7.48905     10.52628         0.138207     -0.476057     -0.222442
O      12.87032      7.51753     10.42601        -0.017701     -1.491206      0.109964
O       1.48593     11.24220      2.20305        -0.072887      0.402537      0.620640
O       2.10421     11.21572     14.42829         0.026415      0.878890      0.540405
O      13.29740     11.28282      2.21486         0.387744     -0.617228      0.446515
O      12.90888     11.26801     14.56316        -0.153977     -0.416858      0.083695
O       1.61897     11.18414      6.33527         0.332786      0.920808      0.270822
O      13.18611     11.25288      6.39369         0.490758      0.082056     -0.359941
O       1.58267     11.24166     10.41294         0.142828      0.199515      0.098420
O      13.40094     11.19037     10.43125         0.289306      0.918150      0.325767
O       5.85359      3.68111      2.20974         0.112768     -0.438223      0.299780
O       5.29960      3.75834     14.53103         0.130234      0.390593      0.219444
O       5.25834     14.91115      2.28474        -0.036696      1.947616      0.147881
O       5.93986     14.99528     14.57004        -0.537915     -0.380696     -0.126644
O       5.74800      3.67521      6.47466        -0.182605      0.108472      0.081668
O       5.45595     14.97777      6.54496        -0.087336     -1.237989     -0.481418
O       5.85311      3.66072     10.52672         0.203647      0.762101     -0.202868
O       5.35752     14.93775     10.50895         0.352349      0.605329     -0.067016
O       5.33568      7.48311      2.31143        -0.022760      0.077943      0.383124
O       5.87146      7.50360     14.65719         0.386273     -0.097308      0.006381
O       5.50886      7.42103      6.39041        -0.537238      0.794320      0.006960
O       5.27342      7.48452     10.43933         0.119378     -0.557515      0.253512
O       5.83852     11.20690      2.35525        -0.125260      0.533369     -0.318948
O       5.27312     11.23415     14.47137         0.214799     -0.276316      0.713632
O       5.83918     11.21305      6.41399        -0.190289      0.283963      0.370809
O       5.87352     11.18091     10.47496         0.337310      0.379891      0.099478
O       9.05831      3.71894      2.36052         0.129793      0.253350      0.021727
O       9.68496      3.68380     14.52322        -0.262692      0.505999      0.332757
O       9.64696     14.98552      2.32044        -0.231563     -0.606117     -0.116038
O       9.11031     15.00857     14.62794        -0.159466     -0.323202      0.091415
O       9.22083      3.68167      6.29113        -0.623872      1.162803      0.267851
O       9.69624      0.01350      6.36856        -0.298090     -0.992435      0.068680
O       9.03910      3.70861     10.29960         0.124852      0.010368      0.671087
O       9.67379     14.93139     10.40934         0.152224      0.138020      0.130524
O       9.56354      7.51814      2.19800         0.021560     -0.579229      0.206139
O       9.19361      7.43998     14.60146        -0.053906      0.444971      0.217460
O       9.56331      7.48325      6.44968        -0.285853      0.192874     -0.276544
O       9.66663      7.44656     10.61015        -0.109461     -0.083991     -0.523524
O       8.99573     11.24474      2.32186         0.494315      0.879441     -0.084618
O       9.71356     11.23210     14.61244        -0.390449      0.904922     -0.350224
O       9.24338     11.24303      6.45871        -0.114941     -0.615950     -0.466200
O       9.04878     11.22353     10.58042         0.371606     -0.139721     -0.252857
