  # total energy = -7877.33036249 
CRSYTAL
PRIMVEC
    15.6000000000000000    0.0000000000000000    0.0000000000000000
     0.0000000000000000   15.6000000000000000    0.0000000000000000
     0.0000000000000000    0.0000000000000000    17.640000000000000
PRESSURE
-4.64654 -4.45793 1.10972 0.114084 -0.438425 0.01599
PRIMCOORD
320 1
Pb       3.92979      3.90622      4.28767         0.061319      0.013960     -0.190220
Pb       3.82615      3.72161     17.57351         0.476111      0.736893     -0.126695
Pb       3.99182      0.06957      4.41992        -0.307776     -0.185085     -0.253398
Pb       3.99518     15.56971     17.52230        -0.393692     -0.131218     -0.137150
Pb      15.58200      3.84775      4.30998        -0.093862      0.640203     -0.074396
Pb      15.53455      3.76296     17.54901         0.352257      0.438963      0.076070
Pb       0.00731      0.02605      4.33033        -0.054846     -0.673035      0.103517
Pb       0.13024     15.53401      0.00508         0.132338     -0.264622     -0.916293
Pb       3.90518      3.83339      8.75814         0.446397     -0.347628     -0.710195
Pb       3.86201      0.00121      8.76629        -0.006407      0.154324      0.048621
Pb       0.05050      3.79661      8.73246        -0.209176      0.157301     -0.003861
Pb       0.05851      0.03743      8.91626        -0.571954     -0.373280     -0.547274
Pb       3.73840      4.05890     13.11519         0.557881     -0.547819     -0.496084
Pb       3.91170      0.07256     13.20870        -0.413378     -0.267780     -0.510556
Pb      15.55469      3.82787     13.25696        -0.069776      0.245831     -1.098357
Pb      15.58787     15.59284     13.18273        -0.033692      0.082114     -0.258265
Pb       3.84778      7.80969      4.19224        -0.170965     -0.406162     -0.207717
Pb       3.79196      7.80982     17.58215        -0.023585     -0.495256     -0.491318
Pb      15.51231      7.68118      4.42723         0.637765     -0.271224     -0.417471
Pb      15.45312      7.77517      0.00334         0.371292      0.045668     -0.282888
Pb       3.80956      7.76255      8.77193         0.445965      0.104772     -0.759555
Pb       0.05937      7.82320      8.64260         0.424872     -0.140590      0.047669
Pb       3.86681      7.90585     13.17962         0.064041     -0.231162      0.379363
Pb      15.44403      7.81786     13.18807        -0.008907     -0.217195     -0.132245
Pb       3.90833     11.59548      4.31164        -0.755243      0.639895     -0.045342
Pb       3.88933     11.65509     17.54359         0.282093     -0.415689      0.103516
Pb       0.02600     11.61767      4.42932         0.051358      0.620273     -0.328628
Pb       0.01170     11.55742      0.09577        -0.244912      0.523659     -0.510129
Pb       3.90642     11.72166      8.67664        -0.366162     -0.010963      0.556336
Pb       0.03734     11.53154      8.78905         0.038464      0.463437     -1.047558
Pb       3.94259     11.53376     13.22852        -0.100504      0.899590     -0.271433
Pb       0.11285     11.61487     13.26005         0.150406      0.449627     -0.379833
Pb       7.80084      3.99188      4.31044        -0.344060     -0.276763     -0.743795
Pb       7.86739      3.81693     17.54753        -0.873326     -0.036099     -0.376138
Pb       7.97534      0.00426      4.37282        -0.749760     -0.194774     -0.428088
Pb       7.84224     15.42830     17.61758        -0.107604      0.327733     -0.568009
Pb       8.00574      3.89778      8.70037        -1.055433      0.141126      0.245095
Pb       7.74085     15.56751      8.68388         0.195714      0.134601      0.328153
Pb       7.61058      3.81145     13.12067         0.511214      0.206697     -0.813231
Pb       7.73657     15.51582     13.16402         0.077154      0.171345     -0.133116
Pb       7.66860      7.81046      4.34575         0.212688     -0.083735     -0.771063
Pb       7.80023      7.76168     17.50337        -0.054767      0.288635     -0.252318
Pb       7.88294      7.82006      8.76283        -0.868254     -0.250749      0.333458
Pb       7.86673      7.67861     13.19810         0.167295     -0.367714     -0.623430
Pb       7.71286     11.64495      4.33502         0.482586      0.288262     -0.860458
Pb       7.77561     11.71872     17.59081        -0.059885     -0.239058     -0.737365
Pb       7.76169     11.62024      8.75609        -0.359610      0.224529      0.404569
Pb       7.76578     11.52506     13.21920        -0.112274      0.804434     -0.268680
Pb      11.61993      3.90060      4.31627         0.398382     -0.003560     -0.305220
Pb      11.63008      3.92594     17.51957         0.096391     -0.135737     -0.202137
Pb      11.79214      0.05217      4.36637        -0.255626      0.125316     -0.636935
Pb      11.83165      0.04623     17.52927        -0.883493     -0.208901      0.020661
Pb      11.73101      3.89505      8.77741        -0.286508      0.095618     -0.381225
Pb      11.56465     15.54938      8.82197         0.290814      0.323422     -0.430447
Pb      11.61008      3.85220     13.21911        -0.366717      0.063947     -1.091375
Pb      11.73458      0.05271     13.23566        -0.243789     -0.421737     -0.479621
Pb      11.64768      7.86175      4.39038        -0.453670     -0.399569     -0.423186
Pb      11.83255      7.88135     17.63071        -0.480290     -0.051097     -0.641963
Pb      11.81802      7.77443      8.78496        -0.867448     -0.013824      0.081760
Pb      11.66470      7.87001     13.21263        -0.072338      0.087715     -0.903626
Pb      11.72471     11.74876      4.55838         0.179764      0.012184     -1.050963
Pb      11.58728     11.77867      0.12025         0.084756      0.101504     -0.904477
Pb      11.56540     11.75914      8.82882         0.291331     -0.230539     -0.362273
Pb      11.80674     11.68089     13.30083        -0.520363      0.315315     -0.853580
Ti       1.95590      1.87136      2.40907        -0.113872      0.641251      2.290102
Ti       1.91621      1.88598     15.49581         0.077558      0.070452      0.639003
Ti       1.84281     13.67551      2.23387         0.231355     -1.256979      1.881686
Ti       1.95460     13.51321     15.60107         0.134917      0.622923      0.275975
Ti      13.68553      1.92435      2.24253        -1.035395      0.214727      1.261870
Ti      13.58809      1.95040     15.59446         0.243685     -0.241170      1.062493
Ti      13.57129     13.60485      2.32941         0.175854     -0.257304      1.421497
Ti      13.74170     13.75715     15.53668        -0.506745     -1.752121      1.125059
Ti       1.81822      1.90767      6.76445         1.200612     -0.283690      0.603163
Ti       1.81452     13.74028      6.81336        -0.165807     -1.193307      1.351124
Ti      13.47616      1.99382      6.70054         0.649794     -0.956390      2.780089
Ti      13.55044     13.72112      6.87461         1.103424     -0.274770      0.462953
Ti       1.88011      1.97624     11.16394         0.299931     -0.568410      1.969248
Ti       1.85515     13.60994     11.22019         1.196155      0.335114      0.715218
Ti      13.62182      1.99116     11.22672         0.134229     -0.087699      1.393002
Ti      13.54496     13.66645     11.19111        -0.322550      1.069480      1.653236
Ti       2.01037      5.75811      2.22114        -0.545460      0.583455      1.875217
Ti       1.87335      5.82069     15.56946         1.075503     -0.062442      1.369620
Ti      13.61484      5.84123      2.32832         0.231277     -0.788639      0.290022
Ti      13.67316      5.85400     15.64131        -0.529851      0.629791      1.237507
Ti       1.95295      5.73923      6.70777        -0.109624      0.853611     -0.658157
Ti      13.68134      5.78282      6.86956        -0.307525     -0.056458     -0.710557
Ti       1.93179      5.86722     11.13368        -1.239488     -0.649635      3.188375
Ti      13.59947      5.93989     11.11977         0.733700     -0.681699      1.625531
Ti       1.86064      9.71492      2.39567         0.427476     -0.121715      1.919038
Ti       1.81015      9.70430     15.66548         0.741925     -0.157600     -1.195239
Ti      13.59433      9.69569      2.52080        -0.110743      1.411874     -0.444514
Ti      13.53046      9.92837     15.72034         0.602584     -0.338291      0.585028
Ti       2.02693      9.73162      6.64191        -0.631228      0.269723      0.817159
Ti      13.59246      9.64013      6.81824         0.067557      1.571514      0.795343
Ti       1.92081      9.64000     11.20981        -0.015991      1.354948      0.440769
Ti      13.68538      9.86719     11.08212        -2.321824     -1.159720      1.539680
Ti       5.85087      1.85893      2.37171        -0.038619      1.436556      0.410177
Ti       5.80895      1.92857     15.56872         0.070847      0.383887      0.914373
Ti       5.72384     13.60493      2.27212         0.629371      0.207165      0.442976
Ti       5.84298     13.59065     15.68849         0.008347     -0.356190     -0.302164
Ti       5.83375      1.93630      6.72616        -1.190076      0.922736      1.224830
Ti       5.76933     13.64513      6.77421        -0.313353      0.066500      1.135145
Ti       5.77417      1.93194     11.12757         0.369205      0.666922      0.530241
Ti       5.69732     13.64417     11.26771         0.536317     -0.675428      1.435826
Ti       5.85145      5.78813      2.20588         0.056199     -0.379922      1.587823
Ti       5.77362      5.85870     15.61652        -0.479609     -0.919520      2.021315
Ti       5.81648      5.85118      6.67622         0.208893     -0.285703      1.547308
Ti       5.80963      5.97479     10.99479         0.912281     -2.501782      1.989042
Ti       5.78190      9.77709      2.27385         0.256667     -0.948592      0.346475
Ti       5.79912      9.64132     15.57148        -0.267061      1.436164      0.475685
Ti       5.79685      9.75008      6.72515         0.120704     -1.474438      2.772678
Ti       5.86001      9.70604     11.24017         0.336049      1.245429     -0.231788
Ti       9.73266      1.95416      2.35906        -0.078253      0.051658      0.405385
Ti       9.65854      1.92153     15.56462        -0.351292     -0.497542     -0.395858
Ti       9.68596     13.65052      2.31914        -0.756476     -0.744896      2.496842
Ti       9.81589     13.68028     15.58111        -0.628913     -0.806257      0.100422
Ti       9.66269      1.99165      6.61144         0.710916     -0.679130      0.739246
Ti       9.69577     13.63009      6.71966        -0.418473      0.737741      1.246058
Ti       9.76146      1.79785     11.13401        -0.919944      1.284063      2.456158
Ti       9.61629     13.60943     11.15159         0.470399      0.159416      1.412344
Ti       9.77913      5.82297      2.19834        -0.249178      0.401672      3.107182
Ti       9.71448      5.81012     15.51415        -0.001984      0.821611      0.565902
Ti       9.69971      5.84526      6.68742        -0.071041     -0.027897      3.983547
Ti       9.75210      5.82050     11.12879        -0.839276     -0.448633      2.240486
Ti       9.70379      9.67531      2.27137        -0.131889      0.717996      2.338851
Ti       9.70600      9.74729     15.56944        -0.385601      0.116275      1.007868
Ti       9.66931      9.71798      6.81433         0.084770     -0.126922     -0.248837
Ti       9.70992      9.77873     11.23920         0.773614     -0.364367      0.189672
O       2.07008      2.01285      0.77036        -0.479418     -0.432310     -3.352694
O       1.84337      1.91673     13.76165         0.249895      0.287582      0.275956
O       1.87568     13.62161      0.51366        -0.221513      0.020716     -0.304409
O       1.91532     13.39372     13.84358         0.098075      0.147398      0.073075
O      13.64719      1.96318      0.50271        -0.154938     -0.208528     -0.189020
O      13.62422      1.85903     13.89196        -0.012429      0.529384     -0.511094
O      13.56414     13.47299      0.62788        -0.060991      0.326567     -1.442751
O      13.64498     13.75827     13.82376         0.047455     -0.400193     -0.979612
O       1.91230      1.67487      5.06755        -0.063076      0.197495     -1.875661
O       1.69998     13.76741      5.12704        -0.056631      0.197258     -1.612294
O      13.46810      2.03873      5.03513         0.219698     -0.563201     -2.758670
O      13.52828     13.53679      5.13340        -0.227781      0.469067     -0.419526
O       1.78877      2.02953      9.45764        -0.036903     -0.106289     -2.360926
O       1.91369     13.72152      9.48847        -0.327338     -0.203786     -0.499007
O      13.59676      1.92060      9.51713        -0.066250      0.310498     -1.557972
O      13.41449     13.86891      9.48629         0.224787     -0.518564     -0.435243
O       2.02178      5.84962      0.50300        -0.353805     -0.129769      0.045509
O       1.86736      5.66379     13.83598         0.108901      0.385989     -0.633219
O      13.74401      5.68526      0.56200        -0.652173      0.658723      0.582233
O      13.71860      6.07880     13.96245         0.121824     -0.483647     -1.346031
O       1.87633      5.81158      4.95471         0.119800     -0.073964      0.146476
O      13.69440      5.84965      5.13310        -0.050858      0.362589     -0.532444
O       1.81284      5.92322      9.48908         0.152417      0.222457     -3.233450
O      13.61731      5.75116      9.40889        -0.124825      0.218045     -1.261842
O       1.81255      9.60335      0.70334        -0.164108      0.567552     -2.365921
O       1.84480      9.74659     13.89115        -0.467541      0.581109     -0.535226
O      13.61247      9.79163      0.76637         0.038053      0.059335     -0.767698
O      13.60761      9.88720     14.01608        -0.405713     -0.159338     -1.620048
O       1.97046      9.81335      4.89380         0.274763     -0.316756     -0.100016
O      13.56299      9.60467      5.08488         0.136057      0.272067     -0.767991
O       1.87523      9.68398      9.47418         0.090186     -0.372368      0.062110
O      13.65620      9.77657      9.38378        -0.052848     -0.182128     -2.162153
O       5.65185      2.00542      0.66968         0.482174     -0.419065     -1.502386
O       5.82710      1.96783     13.86968        -0.379879     -0.269946     -1.592912
O       5.82487     13.40998      0.50651         0.025704      0.613591      0.658895
O       5.79771     13.66658     13.96776        -0.176840     -0.121197     -1.405324
O       5.74824      1.93433      4.99652         0.040356     -0.252625     -1.016057
O       5.69908     13.54357      5.07893         0.290839      0.368814     -0.487180
O       5.63566      1.88262      9.40307         0.285437      0.053717     -0.511979
O       5.73521     13.64678      9.58346         0.083629      0.123249     -2.557657
O       5.68130      5.64247      0.54501         0.392580      0.656213     -1.897538
O       5.77947      5.84812     13.93336        -0.194751      0.217709     -1.917861
O       5.82942      5.76936      4.94552        -0.103652      0.259599     -1.174459
O       5.89047      6.04203      9.31753        -0.229906     -0.418929     -1.616792
O       5.89322      9.78860      0.55628        -0.200966      0.087903     -0.628039
O       5.87614      9.70809     13.81710        -0.083370     -0.177110     -0.870243
O       5.65277      9.70884      5.04643         0.306447      0.070687     -2.272935
O       5.81114      9.88107      9.54968         0.020029     -0.480124     -1.398118
O       9.75354      1.95651      0.62738        -0.374274      0.091818     -0.966336
O       9.64481      1.95168     13.82485         0.328323     -0.157922     -0.010706
O       9.60765     13.62655      0.62571         0.118097      0.227571     -2.128535
O       9.66267     13.59827     13.87454         0.209836      0.208158     -0.678029
O       9.72431      2.13617      4.86781        -0.244557     -0.395988     -0.170187
O       9.57970     13.70380      4.99468         0.324376     -0.598820     -0.484050
O       9.73621      1.76899      9.44079         0.244661      0.459566     -1.967470
O       9.63069     13.78024      9.41553         0.400541     -0.272659     -0.969336
O       9.90173      5.85516      0.52131        -0.098530     -0.140692     -2.120048
O       9.58591      5.78683     13.79785         0.404428      0.124206     -0.313378
O       9.68637      5.82429      5.04150         0.103613      0.024439     -2.986276
O       9.60990      5.74308      9.42757         0.306323      0.191594     -1.538631
O       9.70137      9.75629      0.58157         0.033332     -0.382862     -1.540398
O       9.68230      9.77802     13.83952         0.323208      0.240269     -1.070416
O       9.60230      9.84756      5.07796        -0.022999     -0.458112      0.013547
O       9.79899      9.62754      9.52702        -0.306528      0.304057     -2.133356
O       3.81158      1.97856      2.76695         0.646602     -0.620909      0.937096
O       3.83404      1.85618     16.00309        -0.227172      0.071588     -0.223756
O       3.85507     13.65065      2.72777        -0.207270      0.238022     -0.160695
O       3.87966     13.40008     16.17108        -0.472537      1.462151     -0.739842
O      15.54973      1.99202      2.72871        -0.591897     -0.534923      0.041504
O      15.55579      1.80084     16.09513         0.688918      0.262717     -0.423163
O      15.43746     13.60237      2.71464         0.850206      0.340517     -0.015125
O       0.03656     13.65826     16.00156        -0.656190      0.167758      0.191273
O       3.88453      1.89127      7.12765        -0.556409      0.217227      0.485137
O       3.76355     13.72248      7.17637         1.406433     -0.418872      0.071691
O      15.55421      1.97212      7.02114        -0.629254      0.158309      0.720951
O      15.47722     13.72646      7.32309         0.270716     -0.473729      0.153395
O       3.81929      2.02497     11.53844         0.162506      0.119907      0.460685
O       3.86482     13.53037     11.66769        -0.848592      0.407983      0.363506
O      15.51489      1.92568     11.68874         0.563306      0.132111     -0.023627
O       0.03209     13.80334     11.69775        -1.263747     -0.939711     -0.609225
O       3.85038      5.68639      2.70513        -0.089935      0.627698     -0.024150
O       3.81060      5.83331     16.13416        -0.038753      0.365810     -0.783899
O      15.49709      5.92686      2.81762        -0.015953     -0.346742     -0.269469
O       0.02128      5.81946     16.17122        -0.279979      0.054296     -0.575875
O       3.79060      5.95430      7.19492         0.699768     -0.491291      0.089969
O       0.05645      5.73902      7.18412        -0.857024      0.455755      0.390584
O       3.85717      5.76191     11.37079         0.087340      0.337786      0.569980
O      15.54142      5.89900     11.50629        -0.149829      0.454002      0.623364
O       3.81453      9.77961      2.77917         0.457817     -0.079413     -0.164372
O       3.82046      9.67808     15.72698         0.213906      0.382197      1.174497
O       0.01016      9.67587      2.87568        -1.214592      0.489132      0.187511
O      15.47837      9.64516     16.01070         0.554863      1.004982      0.828461
O       3.92862      9.72450      7.31342        -0.484311     -0.374058     -0.537780
O       0.10346      9.78159      7.09909        -1.304630     -0.247112      0.395449
O       3.88909      9.74375     11.60656        -0.975186     -0.509086      0.355645
O      15.44682      9.70949     11.49583         2.304836      0.007963      0.655382
O       7.74288      2.03205      2.84181         0.405656     -0.260352     -0.251021
O       7.67765      1.93735     15.90497         0.901760     -0.074026      0.936000
O       7.64970     13.64686      2.84045         0.015491     -0.091872     -0.106855
O       7.74537     13.67982     15.96243         0.545933     -0.300087      0.946735
O       7.74665      1.99696      7.10754         0.324941     -0.095729     -0.088175
O       7.78950     13.65104      7.28993        -0.909435     -0.160482     -0.679240
O       7.75594      1.84035     11.48591        -0.148940     -0.039939      0.305395
O       7.79063     13.75178     11.64264        -0.701462     -0.243545     -0.031396
O       7.84617      5.80980      2.50788        -0.302458      0.196425      0.464872
O       7.75904      5.97284     15.98163         0.381785     -0.560449      0.290097
O       7.70671      5.67716      7.05574         0.918962      0.013589      0.156772
O       7.82093      5.84645     11.61437        -0.701605      0.470716     -0.078286
O       7.66547      9.58772      2.81195         0.400255      0.696334      0.006190
O       7.75208      9.70280     15.93204         0.287403     -0.276140      0.424354
O       7.73942      9.71431      7.25445         0.204464      0.473233     -0.162992
O       7.79668      9.84262     11.54415        -0.650416     -0.717651      0.632483
O      11.66211      1.89369      2.74368         0.390816      0.016297      0.134159
O      11.57718      1.98259     16.02264         1.298788     -0.320982     -0.084127
O      11.50756     13.54509      2.71405         0.770697      0.408457      0.435612
O      11.69260     13.56180     15.93453        -0.012294      0.608138      0.522603
O      11.60358      1.94362      6.99306        -0.326304     -0.034596      0.652287
O      11.62584     13.69518      7.21393        -0.758720     -0.382100      0.107024
O      11.72535      1.94366     11.74180        -0.777253      0.306986     -0.247395
O      11.58727     13.72702     11.70641         1.178802     -0.517913     -0.322204
O      11.66885      5.95596      2.86540         0.535786     -0.574833     -0.494464
O      11.71696      5.81507     15.87782        -0.161812     -0.399587      0.430853
O      11.69304      5.93746      7.25387        -0.246076     -0.258321     -0.087644
O      11.68834      5.86750     11.51326         0.055303     -0.058059      0.408097
O      11.64285      9.72428      2.79634        -0.293397      0.338556      0.317743
O      11.61034      9.71634     16.13051         0.619579      0.538900      0.006956
O      11.60937      9.59358      7.04849         0.356287      0.033333      0.680448
O      11.61235      9.80410     11.55855         1.246403      0.262972      0.963685
O       1.82532      3.86676      2.82475         0.152710      0.309415     -0.256285
O       1.97682      3.85234     15.92273        -0.673392     -0.915153      0.044885
O       1.74707     15.50419      2.73944         0.373565      0.900730     -0.052985
O       2.00438     15.45313     16.02836        -0.127003      1.201397     -0.066187
O      13.53663      3.88368      2.77027         0.303203      0.144277     -0.250153
O      13.70544      3.84990     16.03118        -0.196857      0.123215     -0.459027
O      13.52570     15.56473      2.70037         0.099508      0.632524      0.103770
O      13.54848     15.56604     15.96016         0.119820      1.056964      0.579645
O       1.90823      3.84550      7.08268         0.392744      0.180437      0.487269
O       1.89218      0.00581      7.25038        -0.378193      0.395896      0.506706
O      13.48909      3.89505      7.07336         0.375508     -0.115558      0.958108
O      13.59049      0.03640      7.29700        -0.317965      0.069811     -0.630357
O       1.82227      3.87661     11.51232         0.055410      1.145277      0.637346
O       1.89217      0.08456     11.58301         0.427578     -0.783751      0.217735
O      13.71360      3.89736     11.68197        -0.683600      0.736298      0.141689
O      13.60368      0.06702     11.75858         0.051187     -0.999837     -0.368058
O       1.96248      7.79602      2.68978         0.134187     -0.974612      0.397695
O       1.91614      7.83672     15.84973        -0.249726     -1.185889      0.752590
O      13.55430      7.86538      2.73112         0.223380     -1.473335      0.399653
O      13.66224      7.87219     16.08056        -0.517084     -0.968920      0.609387
O       1.91727      7.81675      7.02974        -0.084726     -0.087255      0.542030
O      13.69536      7.75997      7.29927         0.102700      0.401370     -0.160469
O       1.91426      7.80370     11.87019         0.061327     -0.024978     -1.216892
O      13.51785      7.88683     11.59773         0.219800     -0.573503     -0.004990
O       1.80857     11.79275      2.82498         0.220939     -0.446015     -0.343137
O       1.88550     11.66839     16.14838        -0.518986     -1.036430      0.002503
O      13.51397     11.76874      2.89649         0.078814     -1.371994      0.474101
O      13.62461     11.82734     15.95340         0.094678     -1.189544      0.605143
O       1.93595     11.66615      7.07910         0.032349      0.175228      0.525731
O      13.52958     11.64760      7.30087        -0.018857     -0.239433     -0.040270
O       1.87910     11.68485     11.55577        -0.456655     -1.148895      0.261445
O      13.63865     11.72881     11.49438        -0.134796      0.909123      0.284233
O       5.82988      3.88676      2.57488        -0.054096      0.126009      1.429030
O       5.81157      3.91757     15.91609        -0.022027     -0.570598      0.461057
O       5.85111      0.01487      2.62943        -0.512983     -1.230395      0.422659
O       5.79443     15.51792     16.01190        -0.354402      0.871838      0.488506
O       5.70911      3.90424      7.11859        -0.193096     -0.255724      0.279349
O       5.72983      0.01540      7.26911         0.759599     -0.966431     -0.714456
O       5.95327      3.89087     11.42167        -0.719824      0.020976      0.320009
O       5.61627     15.59179     11.67651         0.733937      0.207029      0.016399
O       5.75525      7.77753      2.52695        -0.340605     -0.230344      0.789277
O       5.70808      7.81517     16.05496         0.506226     -0.505625      0.310354
O       5.96244      7.75091      7.11824        -0.646711      0.496957     -0.140430
O       5.79931      7.75074     11.43273        -0.064228      0.996050      0.977915
O       5.70365     11.65646      2.81936         0.750635      0.372135     -0.295623
O       5.75826     11.64793     16.01264         0.583913     -0.935968      0.075225
O       5.78040     11.60344      7.22801         0.311437      1.666925     -0.254214
O       5.83677     11.66372     11.55550         0.009560      0.287830      1.168522
O       9.77976      3.87975      2.70448         0.026504      0.900791     -0.036370
O       9.68641      3.81508     15.89801        -0.110003      1.314144      0.715981
O       9.60043      0.03504      2.75305         0.343393     -0.586484      0.105981
O       9.66545     15.58899     16.06019         0.325377      0.118462      0.111392
O       9.78295      3.87333      7.20209         0.055320      0.124433     -0.140731
O       9.66794      0.04796      6.96222        -0.158585     -0.326708      0.309406
O       9.73088      3.90333     11.58029         0.363638     -0.278374      0.060045
O       9.73993      0.00936     11.54763         0.240948     -0.611028      0.510263
O       9.78172      7.77467      2.75060        -0.563664      0.080607     -0.020752
O       9.79846      7.78548     15.80202        -0.299487     -0.261938      0.668788
O       9.52112      7.69740      7.20897         0.884979      0.755685     -0.630892
O       9.70046      7.84403     11.62394         0.140925     -0.828924      0.553819
O       9.51743     11.65025      2.60834         0.079708     -0.102802      0.559288
O       9.67706     11.70463     15.99542         0.150722     -0.239563      0.351640
O       9.65036     11.69546      7.22442         0.641974     -0.211549     -0.060034
O       9.69024     11.72183     11.47572        -0.062849      0.440984      0.350311
