  # total energy = -7865.76490079 
CRSYTAL
PRIMVEC
    15.010000000000000    0.0000000000000000    0.0000000000000000
     0.0000000000000000   15.010000000000000    0.0000000000000000
     0.0000000000000000    0.0000000000000000    16.400000000000000
PRESSURE
16.7705 16.6283 6.81332 0.015731 0.094701 -0.063204
PRIMCOORD
320 1
Pb       3.86568      3.70918      4.26686        -0.161135      0.277710     -0.367619
Pb       3.66654      3.75961     16.37941        -0.206577     -0.168038      0.405880
Pb       3.69425      0.00060      4.16631         0.936522     -0.224492     -0.460524
Pb       3.82972     14.93055      0.02467        -0.439340      0.142967      0.424707
Pb      14.91928      3.78064      4.15151        -0.058610      0.252477     -0.541498
Pb      14.90648      3.61374     16.39742         0.817506     -0.071737      0.846689
Pb      14.92445      0.03168      4.28666        -0.066333     -0.020172     -1.074863
Pb      14.99859     14.89885      0.14383         0.338417      0.561943     -0.043778
Pb       3.49712      3.76335      8.26964         0.833854      0.230383     -0.518700
Pb       3.64991      0.07114      8.15601         0.167153     -0.823270     -0.121413
Pb      14.83201      3.82366      8.35181         0.382047     -0.596648     -0.204842
Pb      14.83610     14.96889      8.18212         0.368012      0.267140     -0.144840
Pb       3.63927      3.70772     12.35708         0.118141     -0.131908     -0.157493
Pb       3.65133     14.93707     12.39343        -0.093612     -0.029718     -0.310940
Pb      14.92809      3.78213     12.43074         0.360762     -0.315524     -1.077137
Pb      14.98800     14.96648     12.33934         0.425361     -0.363259      0.585964
Pb       3.86613      7.45635      4.19144        -0.292291     -0.260647     -0.717156
Pb       3.77301      7.50350      0.08725        -0.183852     -0.398070      0.060669
Pb       0.08211      7.52067      4.18408        -0.152057     -0.511432      0.181131
Pb      14.95686      7.48180      0.03707         0.575615      0.123783     -0.247945
Pb       3.75651      7.50888      8.17690        -0.170283      0.261910     -0.370888
Pb       0.01846      7.53787      8.37052        -0.052203      0.013965     -0.313532
Pb       3.63172      7.51478     12.28684         0.350037     -0.095537      0.561284
Pb      14.89503      7.42721     12.32235         0.108040      0.674534     -0.034819
Pb       3.83134     11.10578      4.37203        -0.485486      0.946455     -1.239440
Pb       3.77496     11.13519     16.39285        -0.213231      0.678542      0.425635
Pb       0.16655     11.13882      4.14421        -0.569274      0.282035     -0.297331
Pb       0.03223     11.33201      0.11451         0.076852     -0.460663     -0.650831
Pb       3.79366     11.28049      8.21148         0.006633     -0.097007     -0.179180
Pb       0.08145     11.27112      8.20242        -0.160144     -0.039895      0.132827
Pb       3.75624     11.27750     12.25847        -0.417706     -0.010543      0.118162
Pb       0.02640     11.28522     12.32864         0.050519     -0.151287      0.226498
Pb       7.44771      3.80579      4.02910        -0.079679     -0.409102      0.359322
Pb       7.47959      3.69928     16.37912         0.142759     -0.100862      0.591883
Pb       7.51298     14.88948      4.15491        -0.608098      0.276323     -0.426321
Pb       7.38541     14.93552      0.00677         0.832632      0.004441      0.584747
Pb       7.36911      3.67516      8.19235         0.443627      0.629838     -0.011124
Pb       7.45934      0.24416      8.17298         0.493136     -1.291322     -0.062989
Pb       7.29803      3.80080     12.37634         0.785631      0.068176     -0.371212
Pb       7.44180     14.90056     12.32921         0.271778      0.758803     -0.256956
Pb       7.55256      7.49656      4.10219         0.260204     -0.292303     -0.365968
Pb       7.52888      7.48014     16.30122        -0.684546      0.169039      0.869721
Pb       7.51029      7.41154      8.34464         0.231185      0.290051     -0.637311
Pb       7.45192      7.61729     12.34849         0.338448     -0.756614     -0.651045
Pb       7.68337     11.15162      4.22856         0.050646      0.428072     -0.846444
Pb       7.49625     11.24904     16.37335         0.184454      0.105995      0.257103
Pb       7.63465     11.33056      8.11513        -0.806880     -0.353966      0.318689
Pb       7.47427     11.31126     12.15063        -0.011858     -0.721428      0.818345
Pb      11.05725      3.83705      4.14905         1.159284     -0.568939     -0.398967
Pb      11.28451      3.73688      0.02069        -0.761896     -0.761168      0.007830
Pb      11.29074     14.94978      4.13303        -0.149184      0.268807     -0.233015
Pb      11.24933     14.94610      0.09079        -0.576128     -0.024230     -0.404243
Pb      11.19357      3.72300      8.28387        -0.272338     -0.191440     -0.403562
Pb      11.16817      0.06078      8.24016        -0.118186     -0.415641     -0.656066
Pb      11.16453      3.70759     12.36417        -0.513987      0.249577     -0.275306
Pb      11.22381      0.06741     12.43860        -0.307363     -0.820654     -0.010761
Pb      11.44401      7.48665      4.20832        -0.227391      0.161213     -0.329670
Pb      11.25603      7.45699      0.07637         0.189137      0.539620     -0.548716
Pb      11.25012      7.45891      8.26923        -0.207817      0.224869     -0.419741
Pb      11.24650      7.43503     12.29957        -0.593848      0.639639      0.192988
Pb      11.41596     11.11039      4.13676        -0.258420     -0.285206     -0.491248
Pb      11.34879     11.11927     16.38294        -0.295227      0.411463      0.453525
Pb      11.32881     11.32030      8.31219        -0.258520     -0.167461     -0.732861
Pb      11.21051     11.25643     12.28817         0.189054     -0.057227      0.022962
Ti       1.82777      1.83509      2.21399         0.023583     -0.193763     -1.144503
Ti       1.76807      1.83478     14.37602         0.673155     -0.118370      0.093577
Ti       1.85881     13.12449      2.26872         1.320242     -0.983007     -1.245069
Ti       1.88982     13.09296     14.51206        -0.929973     -0.700351     -0.976117
Ti      13.07062      1.84338      2.09606         1.238876     -0.198982     -0.159771
Ti      13.09847      1.85855     14.31135        -0.686726     -0.605234      1.894797
Ti      13.11407     13.10403      2.09071         0.685829     -0.702972      1.012060
Ti      13.08407     13.11367     14.43237         1.143399     -0.452345     -0.536575
Ti       1.78300      1.89821      6.08997         0.441230      0.499941      1.107855
Ti       1.79096     13.20045      6.12472         0.401745     -0.916649      1.006160
Ti      13.03564      1.86050      6.14069         0.015952      0.099189      0.736585
Ti      13.05484     13.04709      6.14423        -0.423903      0.397742      0.733568
Ti       1.86931      1.76131     10.19257        -1.480882      1.255555      0.874376
Ti       1.86143     13.15554     10.22267         0.563084     -1.165383      0.040698
Ti      13.06848      1.84451     10.33218         0.331560      1.036202     -0.974498
Ti      13.14776     13.15136     10.29742        -0.322497     -0.392225      0.351114
Ti       1.91881      5.51766      2.14657        -0.723472      1.128073     -0.853765
Ti       1.75666      5.63050     14.35881         1.519050     -0.330279      0.248458
Ti      13.15746      5.55057      1.96655         0.958253      0.131287      2.243558
Ti      13.00320      5.58410     14.36107         0.061718      0.561944      0.707088
Ti       1.81402      5.63151      6.19260         0.477448     -0.253331     -0.428169
Ti      13.11408      5.57844      6.21132         0.327168      0.246376     -0.900091
Ti       1.89257      5.58518     10.33901        -1.720003      0.066159      0.181741
Ti      13.06618      5.61851     10.29177         0.456134      0.069776      0.064940
Ti       1.95648      9.32630      2.10786         0.619768      0.262429     -0.263116
Ti       1.85240      9.30093     14.35799        -1.330859      0.828811     -0.681495
Ti      13.31410      9.29396      2.04252        -1.250823      0.643829     -0.219109
Ti      13.10488      9.35623     14.35053         0.589390      1.124645     -0.376530
Ti       1.92592      9.34769      6.27087        -0.064614      0.487513      0.282823
Ti      13.22549      9.32659      6.26184        -0.964753      0.017723     -0.583769
Ti       1.82826      9.37936     10.36115        -0.589724      0.453286     -0.423226
Ti      13.07282      9.39628     10.27662         0.239069     -0.386289     -0.164136
Ti       5.61698      1.87590      2.11764        -0.229249     -0.741662     -0.128048
Ti       5.58256      1.83499     14.35718        -0.145310      0.034816     -0.013886
Ti       5.60765     13.12036      2.14426         0.060372      0.260054     -0.035104
Ti       5.64372     13.11278     14.27927        -0.600295     -0.462041      0.775383
Ti       5.56910      1.87565      6.25718         1.030418      0.449961     -1.349574
Ti       5.57330     13.14428      6.21454         0.430607     -0.011545     -1.123149
Ti       5.58586      1.91996     10.25309        -0.345179     -0.306045      0.247534
Ti       5.65425     13.17415     10.20514        -1.655711      0.454807     -0.742856
Ti       5.63114      5.59244      2.09127         0.463597      1.000438      0.035943
Ti       5.52869      5.54966     14.38752        -0.422595      0.878384     -0.364150
Ti       5.63697      5.65402      6.22510        -0.681319     -0.712497     -0.281908
Ti       5.54107      5.71415     10.20812         0.745845     -0.964616      0.440345
Ti       5.74429      9.41013      2.11526        -1.043943     -0.549290     -1.116312
Ti       5.56817      9.33446     14.36386         0.148799      0.198656     -0.294484
Ti       5.71875      9.38511      6.09172        -0.092089     -0.501147      3.220724
Ti       5.51406      9.36499     10.23226         2.132484      1.002194     -0.778208
Ti       9.32818      1.84372      2.11903         0.135143      0.516686     -0.842028
Ti       9.30247      1.82293     14.41725         0.319955     -0.195823     -0.325159
Ti       9.43875     13.05050      2.12765        -1.550281     -0.505612     -1.482850
Ti       9.34720     13.04003     14.40600         0.999128      0.267503      0.485599
Ti       9.34409      1.85034      6.07337        -0.025924     -0.329619      0.002055
Ti       9.31638     13.08435      6.11234         1.376403      1.388794      0.838660
Ti       9.28883      1.84876     10.34676         0.232885      0.545945      0.135818
Ti       9.36652     13.20536     10.24083         0.470612     -0.344836     -0.448172
Ti       9.44679      5.64151      2.06606        -0.570813     -1.698430     -0.400017
Ti       9.27450      5.60853     14.47274         0.508068     -0.216377     -1.513059
Ti       9.34638      5.54185      6.10937         0.322695      0.900557      0.641921
Ti       9.34501      5.55928     10.26675        -0.713317      0.854339     -0.071321
Ti       9.48104      9.24840      1.99604         0.076898      1.042988      0.008097
Ti       9.33685      9.27015     14.31708         0.614620      1.194008     -0.461710
Ti       9.41714      9.31027      6.22780         0.680566     -0.566344     -0.605388
Ti       9.33213      9.40193     10.21547        -0.271641     -0.934179      0.494858
O       1.68009      1.84268      0.38568         0.392159     -0.147696     -0.788447
O       1.71381      1.84734     12.52358         0.345166      0.366330      0.593170
O       1.79369     12.98172      0.31958         0.812535      0.601171     -0.241640
O       1.76975     13.18169     12.55564         0.400691     -0.253168      1.084742
O      13.19063      1.80211      0.21671        -0.465996     -0.116278      0.381586
O      13.17352      2.01095     12.55385        -0.082849     -0.173070     -1.298732
O      13.13898     13.11720      0.28194        -0.239184      0.343442      0.098041
O      13.16231     13.07269     12.58649        -0.265432      0.070783     -0.559059
O       1.89214      1.67956      4.31563        -0.055423      1.050280     -0.248378
O       1.97983     13.17607      4.32254        -0.518256     -0.470710      0.526976
O      13.11625      1.83439      4.33987        -0.297645      0.085925      0.315762
O      12.99098     13.06532      4.34205         0.403339      0.032545      0.238577
O       1.82047      1.84779      8.37041         0.457875     -0.214979      0.431655
O       1.87564     13.14890      8.38497        -0.101773      0.224766      0.149495
O      12.97377      1.79359      8.44477         0.276407      0.237931      1.107097
O      13.06402     13.03918      8.49623         0.430973      0.660407     -0.268854
O       2.05669      5.64453      0.23505        -0.610814     -0.085873      0.591498
O       1.92684      5.55833     12.42250        -0.392269     -0.068984      1.654518
O      13.12880      5.68648      0.19420        -0.221479     -0.128104     -1.143262
O      13.07572      5.54417     12.54623         0.001478      0.038500      0.013649
O       1.65259      5.57309      4.36434         0.939573      0.227716     -0.034091
O      13.10493      5.54715      4.33381         0.474223     -0.032695      0.530089
O       1.77517      5.50837      8.51741         0.165151      0.585712     -1.134844
O      13.17833      5.64747      8.44543        -0.599506      0.129918      0.003862
O       1.88525      9.41514      0.24956         0.264384     -0.371700      0.198453
O       1.74768      9.43793     12.45456         0.539056     -0.647858      0.814683
O      13.20979      9.40134      0.13966         0.127582     -0.826074      1.162164
O      13.20302      9.39930     12.45078        -0.664985     -0.035170      0.994564
O       1.84754      9.37994      4.43168        -0.047933     -0.169962     -0.353091
O      13.27334      9.36472      4.28254        -0.303506      0.113595      0.798227
O       1.97871      9.36359      8.49320        -0.420848      0.067238      0.072598
O      13.02216      9.25909      8.37227         0.196304      0.210548      1.050701
O       5.75708      1.75780      0.26086        -0.582835      0.216964     -0.238387
O       5.63862      1.94898     12.51031        -0.213896      0.014884      0.044535
O       5.62193     13.24147      0.18364         0.138868     -0.386698      0.460739
O       5.49324     13.14076     12.45708         0.354771      0.022447     -0.087698
O       5.61885      1.94332      4.38065        -0.125044     -0.084649      0.169572
O       5.56232     13.17963      4.29305         0.187932     -0.544433      0.663474
O       5.66489      1.86159      8.34554        -0.615473     -0.088885      1.069495
O       5.60456     13.12744      8.34619         0.094905      0.463747      0.676182
O       5.65085      5.60800      0.28325        -0.560533     -0.100403     -0.738622
O       5.47920      5.58596     12.52937         0.293305     -0.190760      0.113227
O       5.57017      5.63275      4.35576         0.277320     -0.097534      0.463375
O       5.45443      5.84601      8.40322         0.843209     -0.778776      0.284562
O       5.71182      9.38515      0.19231        -0.298405      0.022898      0.354200
O       5.64329      9.34277     12.52077        -0.370980      0.089092      0.462197
O       5.69618      9.46787      4.33773         0.161156     -0.372251     -1.804233
O       5.55800      9.39874      8.39370         0.021329     -0.448219      0.843447
O       9.30383      1.97444      0.22721         0.447347     -0.289540      0.345620
O       9.22415      1.68857     12.51347         0.308493      0.403661      0.496643
O       9.37203     13.03368      0.20651         0.068165     -0.152937      0.995545
O       9.39956     13.12501     12.55384         0.180530      0.225362     -0.277610
O       9.33883      1.87025      4.25948         0.220423     -0.191593     -0.316365
O       9.43557     13.07410      4.29517        -0.018367      0.158035     -0.270451
O       9.39329      1.85049      8.48753        -0.081584      0.559964      0.188088
O       9.25473     13.17693      8.42181         0.219946     -0.261547      0.299597
O       9.34421      5.50304      0.19968         0.454982      0.677043      0.142365
O       9.35478      5.70650     12.59382        -0.101622     -0.309410      0.041336
O       9.37284      5.50025      4.25098         0.130999      0.773980      0.674951
O       9.44140      5.56619      8.38713        -0.206293     -0.113025      0.530948
O       9.33875      9.29064      0.11714        -0.133256      0.036837      1.527392
O       9.34136      9.35932     12.41249         0.102301     -0.240629      0.975727
O       9.43736      9.27948      4.33430        -0.313974      0.231522      0.556758
O       9.36644      9.33266      8.38815         0.036895      0.108938     -0.147107
O       3.76837      1.56357      2.25307        -0.252203      0.400148      0.180405
O       3.73395      2.14904     14.69213        -0.554454     -0.631236     -0.568684
O       3.77639     13.36834      2.26896         0.042753      0.443304     -0.181882
O       3.78285     12.88852     14.57732        -0.890072     -0.322839      0.291237
O      14.97055      1.97559      2.48228         0.032411      0.162421     -0.016165
O      14.92179      1.60613     14.61242         0.873911     -0.103527      0.147176
O       0.04623     12.90690      2.40299        -1.611679     -0.283084     -0.001477
O      14.97292     13.26508     14.82888         0.513610      0.334399     -0.730767
O       3.78885      1.57166      6.35137        -1.660192      0.489711      0.192022
O       3.70730     13.21513      6.36077        -0.470122      0.359931      0.363770
O      14.98310      1.97294      6.36364        -0.612685      0.305945      0.096942
O      14.92808     12.94845      6.44938         0.771735      0.609324     -0.241485
O       3.69369      1.64132     10.63197         0.412850     -0.023550     -0.793515
O       3.69148     13.51945     10.48396         0.825971     -0.723616     -0.168539
O      14.94169      2.24631     10.40859         0.620923     -0.383018      0.324168
O       0.00057     12.88553     10.43637        -0.796875      0.291859      0.126708
O       3.76511      5.79879      2.42024        -0.385818      0.146021      0.047070
O       3.67661      5.27990     14.57248         0.534788      0.087786     -0.102181
O       0.03402      5.30366      2.18474        -0.611389      0.111580      0.186509
O      14.98500      5.84460     14.58864        -0.651793     -0.219220     -0.079771
O       3.71675      5.83841      6.44316        -0.506591     -0.167324     -0.302905
O      14.99413      5.38397      6.43311        -0.282862      0.051794      0.346490
O       3.67144      5.97593     10.47713         1.046700      0.172705     -0.100244
O      14.97673      5.45288     10.51606        -0.496726     -0.545064      0.333454
O       3.83313      9.10941      2.32344        -0.515522     -0.024707      0.115515
O       3.65496      9.58762     14.51092         2.375468      0.088714      0.272532
O       0.08303      9.75376      2.22663         0.561598     -0.490428      0.324576
O       0.01370      9.13003     14.50375        -0.843607     -0.488700      0.449396
O       3.82467      9.26473      6.35643        -0.721436     -0.036181     -0.031747
O      15.00427      9.38431      6.60076         1.063066      0.579868     -0.062925
O       3.76077      9.17738     10.58560        -1.489806     -0.013578      0.081685
O      14.90748      9.66372     10.41276         0.979427     -0.254833     -0.287088
O       7.48219      2.12444      2.37006         0.845392     -0.052574     -0.201306
O       7.48775      1.63820     14.56251        -1.250527     -0.416239      0.247800
O       7.52599     12.95879      2.32371         0.500777     -0.332846      0.262020
O       7.50244     13.34867     14.52117        -0.367885      0.093187      0.139205
O       7.51955      2.06112      6.41599        -0.906567     -0.046363      0.429070
O       7.49464     12.87852      6.19799        -0.450098      0.453960      0.305581
O       7.43901      2.16264     10.50920        -0.067150      0.471650     -0.182413
O       7.42294     12.93408     10.51667         1.398675      0.035209      0.029923
O       7.56263      5.39570      2.31107        -0.675664      0.490981     -0.063825
O       7.45162      5.89798     14.60529        -0.576986     -0.439377     -0.297568
O       7.49230      5.47946      6.45285        -0.096904     -0.360007      0.145409
O       7.45954      5.41851     10.49115        -0.325768     -0.074960     -0.199983
O       7.56704      9.39301      2.27824         0.406598      0.320113      0.340465
O       7.48138      8.97844     14.46896        -0.136057      0.247119      0.365992
O       7.52300      9.61142      6.41657         0.052525     -0.532222     -0.289097
O       7.43999      9.74127     10.49583         0.621643     -0.997893     -0.506083
O      11.28973      1.71525      2.33534        -1.386907     -0.320210     -0.008693
O      11.19332      2.16413     14.48997         0.702766     -0.266101      0.245713
O      11.25642     13.26089      2.39049         0.588935      0.026826     -0.375974
O      11.29605     12.84890     14.73181        -1.666754     -0.086388     -0.357304
O      11.17999      1.61323      6.39372         0.741361      0.513418     -0.112663
O      11.21738     13.31968      6.52207         0.032438     -0.439164     -0.285431
O      11.18637      1.69162     10.76433         0.211579     -0.204203     -0.805017
O      11.25512     13.49285     10.43844        -0.588563     -0.240104      0.492876
O      11.38289      5.92998      2.34186        -0.884121     -0.459616     -0.353772
O      11.14845      5.25099     14.59554         1.985029      0.568929      0.037254
O      11.26812      5.73961      6.35570        -1.001521      0.087784      0.182495
O      11.21414      5.91383     10.63332         0.081140     -0.506842     -0.897155
O      11.36257      9.05069      2.19649        -0.157313      0.079823      0.123453
O      11.17710      9.53482     14.74417         1.173506      0.045797     -1.151242
O      11.28820      9.28219      6.39115        -0.712393     -0.393558     -0.062340
O      11.21324      9.08842     10.51005        -0.370761      0.339745     -0.081774
O       2.02731      3.71699      2.37480         0.621630     -0.774935      0.410495
O       1.63204      3.69525     14.69883        -0.303075      0.490295     -0.403405
O       1.66209     14.93586      2.47086        -0.148148      0.752764     -0.423747
O       2.09392     14.98980     14.59041        -0.128319      0.130917      0.442825
O      12.95094      3.69805      2.23413        -0.066902      0.889079      0.007690
O      13.37356      3.74177     14.66081        -0.370841      0.220176     -0.371877
O      13.31419     14.97498      2.49163        -0.223939     -0.669725     -0.612601
O      12.80182     14.95753     14.52713         0.145886      1.482154      0.237100
O       2.10026      3.73792      6.33200        -0.120937     -0.385678      0.067478
O       1.69323      0.04705      6.38052         0.008699     -1.508781      0.554978
O      12.88517      3.70291      6.50815         0.354835     -0.130760     -0.079219
O      13.25483     14.98660      6.52731        -0.139144     -0.373015     -0.749185
O       2.17150      3.72098     10.37544        -0.268538     -0.317197      0.666780
O       1.57310     14.94910     10.58087        -0.276225      1.730737     -0.428037
O      12.79622      3.78085     10.44843         0.012842     -0.323421      0.028556
O      13.42909      0.06939     10.62872        -0.510733     -1.096341     -0.446725
O       1.58841      7.47326      2.42844         0.623970      0.428716     -0.584344
O       2.17183      7.44343     14.62048        -0.303463     -0.249641     -0.219131
O      13.61438      7.48067      2.34565        -0.643425     -0.303866     -0.668457
O      12.93277      7.51334     14.59843        -0.370079     -1.400056     -0.037940
O       1.73176      7.50639      6.43493        -0.113832     -0.502963      0.387979
O      13.26051      7.48109      6.33748        -0.117785     -0.874160      0.286727
O       1.50396      7.56087     10.60468         0.644611     -0.867241     -0.452007
O      13.31590      7.50130     10.55674        -0.006197     -0.145149     -0.113566
O       2.23992     11.21655      2.49035        -0.460367     -0.223442     -0.028072
O       1.63245     11.17979     14.55953         0.130019      1.033954      0.284530
O      13.01754     11.19401      2.33646        -0.548267      0.605971     -0.112330
O      13.29987     11.22221     14.64212         0.017478     -0.380796     -0.060506
O       1.91202     11.23438      6.45827         0.171438      0.603296     -0.187748
O      13.00245     11.20190      6.49644        -0.096452      0.636009     -0.245027
O       1.99712     11.25830     10.55648         0.666174      0.550070     -0.183059
O      12.86917     11.25913     10.45085        -0.739986      0.453336      0.231878
O       5.43723      3.77680      2.42598        -0.089070     -0.972283     -0.232706
O       5.82220      3.70583     14.59921         0.354288      0.327999      0.160401
O       5.94319      0.01519      2.39353        -0.268798      0.057904     -0.328564
O       5.28288     14.97551     14.48216         0.624208      0.472660      0.180719
O       5.35665      3.80116      6.50195         0.370389     -0.909981     -0.011574
O       5.84654     14.98505      6.34154         0.002890      0.254736      0.251525
O       5.37368      3.83038     10.21502        -0.404994     -0.665835      0.885571
O       5.93156      0.08008     10.47870        -0.612337     -0.472662     -0.227682
O       5.79085      7.47758      2.38631         0.204822      0.289738      0.170847
O       5.37047      7.43861     14.68041        -0.296865      0.428228     -0.290770
O       5.76331      7.46110      6.46582         0.256722      2.237686     -0.677177
O       5.86080      7.52810     10.53000        -0.062489      0.461754     -0.123296
O       5.38453     11.25987      2.27632         0.445465     -0.594147      0.070055
O       5.90357     11.23440     14.51632        -0.278475     -0.383292      0.320213
O       5.51578     11.26753      6.50797        -0.252687     -0.629068     -0.537834
O       5.39572     11.30347     10.43409        -0.673706      0.010617      0.336204
O       9.58793      3.79314      2.28986         0.618524     -1.088192      0.152670
O       9.08502      3.71858     14.59971        -0.310788      0.023956     -0.406223
O       9.30226     14.99677      2.19170        -0.341009     -0.314403      0.360348
O       9.60027     14.94602     14.74207         0.169968      0.363557     -0.382597
O       9.44997      3.70872      6.24152         0.798184      0.248660      0.794334
O       9.19936      0.03663      6.47508        -0.345857     -1.371021     -0.481584
O       9.60141      3.74765     10.44913         0.101195     -0.476415      0.511494
O       8.95678     15.00888     10.37383         0.366299      0.143031      0.663234
O       9.31175      7.38757      2.41142        -0.552498      2.150332     -0.100064
O       9.71091      7.47707     14.66859        -0.647682     -0.729183     -0.213004
O       9.15926      7.42950      6.35685         0.289060      0.712470      0.179891
O       9.10248      7.45822     10.34365        -0.121412      1.077305      0.367150
O       9.60325     11.11102      2.34284        -0.047155      0.442746     -0.069708
O       9.08776     11.16840     14.56534         0.101799      0.300293     -0.080497
O       9.42882     11.26620      6.42393         0.773275     -0.543787     -0.008505
O       9.61727     11.28780     10.44150        -0.001086      0.110224      0.188177
