  # total energy = -7880.56605835 
CRSYTAL
PRIMVEC
    15.6080000000000005    0.0000000000000000    0.0000000000000000
     0.0000000000000000   15.6080000000000005    0.0000000000000000
     0.0000000000000000    0.0000000000000000   16.6239999999999988
PRESSURE
-0.302886 -0.196991 0.2973 -0.191015 -0.144489 -0.031647
PRIMCOORD
320 1
Pb       3.92825      3.92145      4.13947        -0.363780     -0.636740      0.081949
Pb       3.95326      3.96426      0.03680        -0.488761     -0.375929     -0.301618
Pb       3.88433     15.59624      4.09176         0.017969      0.466979      0.004812
Pb       3.83682     15.58422     16.59471         0.312313     -0.065640      0.231016
Pb       0.01974      3.86551      4.10716        -0.074403     -0.154682      0.422211
Pb      15.54648      3.86336     16.61342        -0.027762      0.177643      0.032299
Pb      15.55350     15.59572      4.05803         0.218633     -0.320402      0.793494
Pb      15.55684     15.56946     16.60244        -0.200667      0.458696     -0.094263
Pb       3.81482      3.87338      8.30420         0.138440     -0.367215     -0.018359
Pb       3.88876      0.01183      8.31264         0.355418     -0.235765     -0.448610
Pb      15.57402      3.85575      8.26841         0.045842     -0.074523      0.381501
Pb       0.04540     15.58324      8.24436        -0.682068     -0.273676     -0.035952
Pb       3.90033      3.90991     12.40784        -0.123742      0.136893     -0.009978
Pb       3.86319     15.53424     12.37209         0.097991     -0.479513      0.537525
Pb      15.58017      3.83315     12.44374         0.070025      0.403658     -0.226915
Pb      15.55852      0.09603     12.48999         0.258296     -0.464910     -0.126777
Pb       3.86080      7.80368      4.20978         0.091674      0.194769     -0.140148
Pb       3.84977      7.76481     16.62266         0.423232      0.213278     -0.301278
Pb       0.07332      7.81497      4.15739        -0.258855      0.314835      0.058384
Pb       0.00142      7.77308     16.62078        -0.094607     -0.553586     -0.146820
Pb       3.96989      7.75433      8.18052        -0.111492      0.312467      0.743815
Pb      15.52564      7.78610      8.36036         0.302717     -0.021218      0.472012
Pb       3.89598      7.81897     12.45458        -0.156850     -0.043266     -0.492354
Pb       0.00129      7.82337     12.48738        -0.745963      0.295943     -0.000918
Pb       3.86944     11.68238      4.10969         0.163092     -0.100182     -0.028233
Pb       3.89706     11.63748     16.53147         0.075450      0.581012      0.122269
Pb      15.59104     11.66792      4.11554        -0.189841      0.383745      0.031874
Pb      15.57708     11.72943     16.56758         0.142320      0.241306      0.455470
Pb       3.84899     11.66672      8.21486         0.774118     -0.068383      0.151413
Pb      15.57593     11.65803      8.30557        -0.250485      0.318272     -0.173095
Pb       3.95228     11.68783     12.39683        -0.533534      0.093670      0.386569
Pb       0.05964     11.62877     12.37765        -0.413693      0.017612      0.607270
Pb       7.82442      3.84557      4.15436        -0.398663     -0.175800     -0.051782
Pb       7.82843      3.93333      0.03703        -0.296306     -0.294847     -0.539671
Pb       7.80723     15.53820      4.06999        -0.322407      0.334872      0.255162
Pb       7.83836      0.06088      0.01106        -0.304816     -0.582926      0.105084
Pb       7.70646      3.92296      8.28704         0.782153     -0.028687      0.201737
Pb       7.80040     15.55930      8.31165         0.429488     -0.008209      0.012865
Pb       7.74951      3.86126     12.42521        -0.113046      0.255500     -0.261805
Pb       7.74990     15.58050     12.47035         0.122193     -0.318303      0.146856
Pb       7.76324      7.81294      4.14589        -0.367562      0.116218      0.058860
Pb       7.83878      7.86982     16.60594        -0.645776     -0.058686     -0.304997
Pb       7.79124      7.77551      8.26743        -0.358328      0.186400      0.341100
Pb       7.85037      7.70659     12.36456        -1.318883     -0.087428      0.836578
Pb       7.87341     11.68189      4.20430        -0.596387     -0.221821     -0.250119
Pb       7.75632     11.67301      0.00731        -0.222446      0.049116     -0.153984
Pb       7.71629     11.71620      8.20420        -0.037472     -0.122271      0.609180
Pb       7.75606     11.60657     12.42297        -0.043723      0.680878      0.100053
Pb      11.70928      3.92194      4.18166         0.028614     -0.596198      0.707951
Pb      11.72907      3.97047      0.01512         0.157588     -0.617655     -0.473761
Pb      11.59204     15.56200      4.11204         0.833887     -0.155704      0.820887
Pb      11.63397     15.57285      0.02045         0.307540     -0.125861      0.021896
Pb      11.74480      3.93607      8.28555        -1.292457      0.144126      0.888893
Pb      11.68347      0.04071      8.24967        -0.784811     -0.332644      0.404810
Pb      11.77489      3.85940     12.48773        -0.703398      0.197753      0.297675
Pb      11.78988     15.56861     12.43516        -0.815626     -0.153710     -0.212520
Pb      11.69290      7.64856      4.07789         0.375033      0.900887      0.254483
Pb      11.55560      7.77877     16.60242         0.271305      0.078836     -0.104457
Pb      11.64225      7.86074      8.22346        -0.119078     -0.552126      1.259499
Pb      11.63843      7.79664     12.51018         0.629148      0.095203     -0.138406
Pb      11.62801     11.56112      4.17996         0.640166      0.226796     -0.025753
Pb      11.73798     11.72692     16.57219        -0.587744     -0.019481      0.091095
Pb      11.83755     11.77082      8.31139        -0.601783      0.081887     -0.267031
Pb      11.66980     11.75228     12.43285        -0.059279      0.027671     -0.233136
Ti       1.95589      2.03539      2.17695         0.146481     -0.369759      0.009814
Ti       1.93235      1.99856     14.66836         0.041132     -0.028910      1.104914
Ti       1.89435     13.72794      2.18725         0.214247     -0.651507      0.249391
Ti       1.83162     13.65388     14.77448         1.705813     -0.069302     -2.117775
Ti      13.63590      1.89331      2.32303         0.352385      0.177343     -0.576100
Ti      13.65919      1.85729     14.59656        -0.564775      1.104098      1.185388
Ti      13.67555     13.61965      2.20165        -0.496191      0.865103     -0.502197
Ti      13.60288     13.59166     14.63863         0.337549      0.744804     -0.678464
Ti       1.88773      1.80870      6.32016         0.399032      0.989417     -0.479410
Ti       1.98047     13.61295      6.44071        -1.141140     -0.451197     -0.652657
Ti      13.53088      2.00584      6.45227         0.475831     -1.380836     -0.713601
Ti      13.59312     13.70817      6.42352         0.399650     -0.613784     -0.475024
Ti       2.02077      1.82489     10.51652        -1.008468      0.934500      1.055929
Ti       1.89169     13.56067     10.50908        -0.005443      0.366993      0.503098
Ti      13.57320      1.94591     10.42464         0.187038      0.542558      0.165066
Ti      13.65285     13.67556     10.54527        -0.287597     -0.231208      0.231520
Ti       1.84601      5.89945      2.18368         0.186206     -1.312736     -0.615145
Ti       1.97644      5.87623     14.56566        -0.809689     -0.694098      0.939318
Ti      13.55200      5.75377      2.36233         1.400601      0.436824     -1.565562
Ti      13.70897      5.85037     14.71442        -0.589879     -0.663314     -1.683049
Ti       1.93820      5.77065      6.46722        -0.369250      0.267848     -0.487030
Ti      13.66849      5.87363      6.49299        -0.915996     -0.399715     -0.926040
Ti       1.71511      5.92869     10.56638         0.867100     -0.865381      0.460791
Ti      13.48724      5.90741     10.68426         0.291040      0.277416      0.015368
Ti       1.97991      9.77804      2.19266        -0.172487      0.174551     -0.231925
Ti       1.86560      9.72899     14.76798         0.770475      0.651846     -1.324309
Ti      13.63625      9.72568      2.01548        -0.384665     -0.104903      3.497141
Ti      13.65067      9.72165     14.80242        -0.423532     -0.248213     -1.770854
Ti       1.92336      9.68449      6.42054         0.104832     -0.128898     -0.530795
Ti      13.71733      9.67456      6.42467        -1.099402      1.186592     -0.723176
Ti       1.93506      9.73402     10.46891        -0.032468     -0.792745      1.068486
Ti      13.65122      9.78536     10.40754        -0.341061     -1.173368      0.540456
Ti       5.84328      1.95347      2.23748        -0.080774     -0.486068      0.409904
Ti       5.74039      1.82383     14.77746         0.444390      0.414269      1.502848
Ti       5.79020     13.61338      2.26381         0.098851     -0.146392     -1.256654
Ti       5.82925     13.60869     14.58451        -0.438484     -0.291961      1.337177
Ti       5.82238      1.93232      6.38268         0.078123     -0.561100     -1.532394
Ti       5.88112     13.70360      6.29316        -0.035008      0.075288      2.800280
Ti       5.82625      1.86090     10.46448         0.515892      0.458764      0.174768
Ti       5.82036     13.60902     10.40308         1.310928      0.181365     -1.355594
Ti       5.66554      5.85280      2.20639         1.972996     -0.183734     -0.245302
Ti       5.81779      5.81235     14.68185         0.190026      0.067008     -0.278436
Ti       5.83413      5.73244      6.36097         0.381290      0.800979      1.874696
Ti       5.66011      5.84713     10.43472         0.827911     -0.014014      0.532371
Ti       5.80980      9.68483      2.15035         0.773164      0.902611      0.143300
Ti       5.79194      9.74564     14.61497         0.257388     -0.057133      1.337867
Ti       5.83566      9.73730      6.29605         0.470404     -0.917045      0.230809
Ti       5.84084      9.76798     10.52041        -0.238005     -0.513470     -1.464370
Ti       9.78000      1.94816      2.27531        -0.345797     -0.626591     -0.312077
Ti       9.75055      1.85075     14.72298         0.000902      0.933041     -0.280123
Ti       9.74162     13.59069      2.23446         0.056274      0.238674     -0.994030
Ti       9.70200     13.58028     14.71572         0.010255      0.508190     -1.275998
Ti       9.63913      1.92473      6.47405         0.815344      0.249158      0.896562
Ti       9.67699     13.62322      6.31870         1.336834      0.791996      0.425674
Ti       9.67061      1.91384     10.62640         1.039379      0.028580     -2.232257
Ti       9.62165     13.66758     10.59027         0.322530     -0.088759     -0.095222
Ti       9.61023      5.78886      2.17932        -0.307368      0.116046      1.147389
Ti       9.76674      5.84854     14.72382         0.027529     -1.185291      0.464095
Ti       9.71720      5.90771      6.32533        -0.153089     -1.489271      1.357029
Ti       9.68450      5.89994     10.55160         0.397126     -1.327054     -0.182195
Ti       9.67906      9.63557      2.25220         0.834106      1.094828     -0.598492
Ti       9.68617      9.75927     14.63034         0.734093     -0.139221      1.226647
Ti       9.73450      9.74036      6.46220        -0.228259      0.212506     -0.703362
Ti       9.67817      9.72529     10.65610         0.592343      0.527447     -1.455220
O       1.86224      2.12990      0.40477         0.391945     -0.372948      0.340223
O       1.80732      1.78544     12.94424         0.645084      0.202969     -1.901348
O       2.00602     13.68516      0.42785        -0.174375     -0.215545     -0.829136
O       1.93653     13.64098     12.89012        -0.037003      0.005071      0.740752
O      13.58279      1.85980      0.54790         0.290365      0.069744     -0.023653
O      13.48945      1.90582     12.82674         0.515678      0.337642      0.245844
O      13.68226     13.75541      0.38032         0.139988     -0.043665      0.372714
O      13.72527     13.58043     12.78920        -0.446688      0.160947      0.984783
O       2.05230      1.90800      4.56310        -0.383680     -0.159791     -0.006720
O       1.68545     13.49996      4.68115         0.708514      0.232420      0.323809
O      13.57035      2.21823      4.67840         0.374746     -0.656703     -0.346653
O      13.77863     13.67443      4.66241        -0.076835     -0.270262     -0.318441
O       2.05235      1.87109      8.78190        -0.317810      0.033798     -0.615823
O       2.02636     13.62449      8.75952        -0.082125     -0.147933     -0.502142
O      13.71269      1.97713      8.61209        -0.185797     -0.341376      1.408019
O      13.54534     13.62518      8.76327         0.099100      0.064197      0.526949
O       1.84144      5.68388      0.36078         0.100210      0.798676      1.245712
O       2.00622      5.94109     12.82308        -0.012643      0.043381     -0.315175
O      13.79526      5.71121      0.57547        -0.507969      0.260901     -0.024045
O      13.55857      5.91763     12.83519        -0.035414     -0.261556      1.478901
O       1.99620      5.91135      4.70621        -0.126358     -0.137284      0.127997
O      13.53279      5.81915      4.67679         0.114630      0.252021      0.038513
O       1.64811      5.93563      8.78417         0.485676     -0.409981     -1.088643
O      13.59417      5.80163      8.93667         0.231602      0.008252     -2.365717
O       2.09157      9.66399      0.40209        -0.592005      0.167586      0.674129
O       1.97211      9.91128     12.95876        -0.134438     -0.518021      0.370995
O      13.88889      9.81566      0.32120        -1.022912     -0.185367     -0.841978
O      13.81954      9.80834     13.02743        -0.517382     -0.228064      0.609100
O       1.90812      9.57858      4.59812         0.144805      0.400734     -0.069705
O      13.49518      9.63861      4.64164         0.535810      0.215363      0.156226
O       1.82997      9.67884      8.73434         0.370345     -0.025747     -0.754278
O      13.70317      9.71775      8.59389        -0.363816      0.192986      1.157628
O       5.76363      1.78977      0.47487         0.306318      0.224020     -0.607426
O       5.85680      1.89621     13.08534        -0.144619      0.000627     -1.992359
O       5.68376     13.56350      0.46491         0.183818     -0.117549      0.815080
O       5.90628     13.74232     12.85772        -0.382512     -0.338638     -1.022727
O       5.93477      1.84897      4.54850        -0.447794      0.541340      0.653180
O       5.98811     13.52070      4.59381        -0.309586      0.343454     -1.811347
O       5.82493      1.85888      8.69817        -0.117739      0.292030     -0.021817
O       6.04756     13.63142      8.48125        -0.953959     -0.206152      2.088790
O       5.61790      5.83095      0.43233         0.214566      0.122850     -0.200774
O       5.65638      5.77192     12.85919         0.288897      0.235212      0.996803
O       5.76697      5.72892      4.64701         0.034409      0.380597     -1.917309
O       5.83185      5.58585      8.65818        -0.347098      0.605397      0.982360
O       5.91284      9.87411      0.33991        -0.249275     -0.314735      0.968594
O       5.74010      9.81751     12.83525         0.024168     -0.338501      0.063682
O       5.98543      9.53359      4.51578        -0.629914      0.192052      0.193489
O       5.89417      9.81451      8.71433        -0.186577     -0.211642      0.577814
O       9.74742      1.59764      0.51527         0.167898      0.965733      0.502535
O       9.75857      1.85512     12.92410        -0.083296      0.314349      0.296183
O       9.78639     13.65112      0.35861         0.240178     -0.179982      1.417900
O       9.77331     13.62289     12.85707        -0.151743     -0.218961      1.581615
O       9.77272      2.13850      4.73663        -0.229594     -0.193866     -1.642400
O       9.68306     13.58147      4.52545         0.038471      0.114337     -0.331616
O       9.78437      1.76573      8.73658        -0.660187      0.218440      1.692599
O       9.61014     13.81131      8.83080         0.312976     -0.454272     -0.270777
O       9.77240      5.83275      0.45658        -0.142610      0.161468     -1.142027
O       9.90272      5.82375     12.99582        -0.686052      0.013644     -0.500869
O       9.58893      5.77607      4.55552         0.593260      0.103354     -0.167340
O       9.69689      5.98534      8.80658        -0.132769     -0.058052     -0.385381
O       9.76812      9.76765      0.47272        -0.234021     -0.200322      0.309068
O       9.62614      9.64277     12.88495         0.379138      0.361050     -0.645720
O       9.66510      9.68128      4.63119         0.372806      0.426578      0.367702
O       9.59138      9.58861      8.83845         0.248340      0.187710      0.175395
O       3.93403      2.00504      2.53000        -0.822804     -0.093194      0.129274
O       3.80800      1.91246     15.05216         0.955809      0.008930      0.019631
O       3.78130     13.54813      2.69692         0.663332      0.256568     -0.052823
O       3.92939     13.31301     14.80748        -0.076324      0.621228      0.418506
O       0.04423      1.89856      2.54956        -0.074947      0.390908      0.190912
O       0.02629      1.88645     14.96304        -0.790595      0.050949      0.064985
O      15.60740     13.57372      2.55544         0.463546      0.736053     -0.222906
O      15.59286     13.70119     15.02861        -0.120201     -0.158717      0.008630
O       3.91445      1.85338      6.63389        -0.317043      0.325976      0.468326
O       3.92155     13.62817      6.66075         0.220614     -0.229395     -0.292521
O      15.58034      1.74622      6.61507         0.506562      0.608982      0.138647
O      15.59308     13.59503      6.94052         0.491744      0.224620     -0.497413
O       3.94231      1.95109     10.79775        -1.283096     -0.272943      0.428715
O       4.00987     13.62656     10.67980        -1.764580     -0.149737      0.528963
O      15.55441      2.08475     10.88963         0.487593     -0.509179     -0.554568
O      15.59931     13.65835     10.81943         0.413711     -0.086998     -0.500829
O       3.86892      5.77198      2.59867        -0.706591      0.227277     -0.121882
O       3.81719      6.03827     15.00498         0.714630     -0.424714     -0.199552
O      15.60126      5.91587      2.68419         0.089153      0.002382     -0.206737
O      15.55061      5.82700     14.88698         1.216840      0.440286      0.269017
O       3.89262      5.74126      6.76832        -1.255917      0.066430     -0.040274
O      15.50795      5.61789      6.64804         0.536130      0.604862      0.175676
O       3.80944      5.95165     10.67732         0.901581     -0.260081      0.076916
O      15.48163      5.87351     10.91890         0.433974     -0.210294      0.322365
O       3.97376      9.66788      2.59718        -1.692596      0.192395     -0.163103
O       3.89862      9.73858     15.00307         0.091081      0.185254     -0.236890
O       0.00157      9.67550      2.48998        -0.261189     -0.218023     -0.149593
O      15.60200      9.71814     15.07724        -0.403791      0.103045      0.081707
O       3.89091      9.64692      6.65981        -0.687901     -0.008151      0.008284
O      15.57010      9.70026      6.69351         0.531632      0.502950     -0.258687
O       3.89362      9.68686     10.74954        -0.567723      0.206394      0.203899
O      15.56103      9.67488     10.79402         0.490933      0.246171      0.029337
O       7.77988      1.88627      2.62400         1.070405     -0.143998     -0.492401
O       7.78210      1.83313     15.10934         0.076675      0.175660     -0.126511
O       7.75993     13.70770      2.38149         0.357501     -0.155037      0.399230
O       7.84946     13.63331     14.95294        -0.077685      0.241555      0.214631
O       7.79665      1.98235      6.73114        -0.614960      0.015343     -0.000788
O       7.88323     13.60393      6.68317        -2.164648     -0.159140     -0.517554
O       7.75820      1.82000     10.91079        -0.126091      0.646009     -0.128324
O       7.70143     13.57470     10.84579         0.544846      0.494551      0.184412
O       7.71101      5.87054      2.51979         0.750147     -0.110604     -0.319153
O       7.75121      5.84746     15.03910        -0.337823     -0.135482     -0.151164
O       7.72389      5.81193      6.72840         0.911279     -0.081814     -0.359755
O       7.79413      5.80542     10.92468        -0.975245     -0.096877      0.040293
O       7.78754      9.68481      2.49491         0.332595      0.075883      0.052464
O       7.88096      9.73372     15.05189        -0.832994     -0.113566     -0.192665
O       7.71319      9.60760      6.62068         1.434305      0.327518      0.313466
O       7.72328      9.68744     10.99291         0.376687      0.176274     -0.333219
O      11.76509      2.04934      2.73120        -1.293171     -0.541079     -0.728035
O      11.71305      2.05551     15.05658         0.189535     -0.461554     -0.219608
O      11.78399     13.77756      2.49931        -1.279496     -0.478489      0.079334
O      11.76754     13.58738     15.01444        -0.402405      0.376396     -0.273624
O      11.66920      1.81465      6.74195         0.092929      0.320020     -0.142467
O      11.63004     13.68222      6.65344         0.428080     -0.259270      0.260872
O      11.65717      1.78352     10.71276         0.392536      0.293808      0.425636
O      11.66128     13.61334     10.91304         0.950647     -0.061696     -0.385601
O      11.68115      5.74430      2.56715        -0.557658     -0.049821     -0.125518
O      11.73131      5.66545     15.02112        -0.538034      0.520751      0.454059
O      11.62555      5.94178      6.80317         0.414474     -0.373783     -0.652199
O      11.60662      6.08714     10.92629        -0.354514     -0.808728     -0.108537
O      11.66275      9.97681      2.52044         0.530583     -0.823234     -0.579576
O      11.67092      9.66799     15.06868         0.606261      0.301760     -0.052652
O      11.67854      9.64754      6.75080        -0.884692      0.571018     -0.326719
O      11.67553      9.81677     10.88080        -0.068212     -0.288810     -0.184326
O       1.95326      3.93354      2.62946        -0.149251     -0.074561     -0.189163
O       2.06309      3.92795     14.77861        -0.410400      0.098945      0.117271
O       1.99238     15.59974      2.37933        -0.032903      0.439098      0.526539
O       2.01484     15.57417     15.02990        -0.191663     -0.527120      0.142561
O      13.76952      3.87697      2.58077        -0.279831      0.269299      0.139226
O      13.85183      3.90674     15.02713        -1.121387     -0.885199     -0.364460
O      13.72842     15.60245      2.65356        -0.324273      0.391117     -0.132661
O      13.73005      0.00309     14.85025        -0.370527     -0.129677      0.163457
O       1.87472      3.76117      6.70334         0.329748      1.006365      0.243539
O       2.02455     15.53026      6.65947        -0.283569     -0.068539      0.382614
O      13.51037      3.83609      6.83899         0.554574      1.479063     -0.453492
O      13.63915     15.54703      6.69763         0.109873      0.758808      0.266238
O       1.99545      4.05148     10.94112        -0.317523     -1.582973     -0.319405
O       1.98241     15.53067     10.77255         0.013728      0.904693      0.111346
O      13.41114      3.94412     10.90267         0.657906     -1.279991     -0.311168
O      13.72154      0.07317     10.88993        -0.205232     -0.980960     -0.624742
O       2.01982      7.72390      2.45179        -0.118457      0.882239      0.285257
O       1.74380      7.82369     14.93429         0.740126     -0.304901      0.227384
O      13.41597      7.83417      2.37834         0.443305      0.372117      0.152388
O      13.52110      7.70884     15.04787         0.627008      1.100579      0.433228
O       1.76695      7.81130      6.66889         0.517444     -1.417595      0.363447
O      13.69697      7.76577      6.75159        -0.032223     -0.749539     -0.115848
O       1.82902      7.80127     10.99442         0.521154      0.823536     -0.492566
O      13.58726      7.82893     10.80170         0.232259      1.106229      0.321055
O       1.88828     11.68358      2.47527         0.336856     -1.180658      0.146436
O       1.83630     11.69659     15.13421         0.000913     -0.192313     -0.117775
O      13.69049     11.82376      2.45206        -0.106876     -2.419653      0.133464
O      13.68465     11.77011     15.00224         0.063058     -1.331336      0.259947
O       1.99457     11.61471      6.79444        -0.372320      0.303073     -0.358431
O      13.61287     11.70117      6.75739         0.034177     -0.515631     -0.096550
O       1.98072     11.63058     10.83375        -0.131905      0.725465     -0.417093
O      13.79553     11.62843     10.77975        -0.758306      1.032744     -0.217294
O       5.91872      3.85195      2.39585        -0.407130      0.730139      0.519018
O       5.78034      3.89136     15.09429        -0.060584      0.476020     -0.237611
O       5.72401     15.55435      2.54799         0.138939     -0.562925      0.229985
O       5.70580     15.49794     15.00041         0.152111      0.275059      0.151480
O       5.89625      3.81528      6.63138        -0.498286      0.431934      0.197600
O       5.88342      0.01656      6.58632         0.058603     -1.257873     -0.002466
O       5.83112      3.80444     10.87983        -0.046538      0.521019     -0.149741
O       5.79117     15.55898     10.76756         0.155307      0.363355      0.110327
O       5.83912      7.79102      2.47310        -0.261786     -0.798054     -0.047481
O       5.82175      7.86187     15.15933         0.283138     -0.574289     -0.843813
O       5.78244      7.73120      6.79596         0.062426     -0.549869     -0.634982
O       5.82288      7.80414     10.70888         0.090893     -0.968194      0.138600
O       5.77902     11.61618      2.59935         0.314416      0.502106      0.006081
O       6.10515     11.67709     14.89213        -0.767916     -0.535816      0.037622
O       5.85081     11.55668      6.53177        -0.102274      1.619311      0.141447
O       5.90186     11.72007     10.73878        -0.367058     -0.416584      0.349479
O       9.66977      3.85219      2.32066        -0.002243      0.033747      0.514190
O       9.67434      3.84412     15.19933        -0.012972     -0.070099     -0.326539
O       9.81306     15.60709      2.68283        -0.383248     -0.032115     -0.343167
O       9.84391     15.56718     15.05197        -0.111707     -0.075746     -0.404841
O       9.80183      3.89429      6.89270        -0.380657      0.605785     -0.693594
O       9.59550     15.54757      6.63932         0.470305      0.540343     -0.196574
O       9.72503      3.91028     10.83127         0.047885     -0.976489      0.292456
O       9.65003     15.54836     10.97405         0.139624      0.475610     -0.077119
O       9.83623      7.76588      2.41358        -0.079059     -0.092209      0.465451
O       9.68463      7.74961     15.03613         0.629762      0.108640      0.069137
O       9.67245      7.76041      6.67590         0.019573      0.534037     -0.134549
O       9.58075      7.75161     10.99018         0.912368      1.179058     -0.306201
O       9.70467     11.76275      2.65087         0.013754     -0.392149     -0.547898
O       9.87370     11.65264     14.98300        -0.369234      0.274037     -0.147978
O       9.70845     11.74754      6.78781         0.312766     -1.841483     -0.439599
O       9.65608     11.67028     10.88070         0.092700     -0.409312      0.063501
