  # total energy = -7882.49885170 
CRSYTAL
PRIMVEC
    15.6080000000000005    0.0000000000000000    0.0000000000000000
     0.0000000000000000   15.6080000000000005    0.0000000000000000
     0.0000000000000000    0.0000000000000000   16.6239999999999988
PRESSURE
-1.18834 -0.967916 -0.238703 -0.17184 0.266098 -0.018694
PRIMCOORD
320 1
Pb       3.98896      3.84771      4.18633        -0.332563      0.291290     -0.443707
Pb       3.88456      3.88198      0.01937        -0.241195     -0.033197     -0.190735
Pb       3.92566      0.01951      4.13075         0.327593     -0.093730      0.026832
Pb       3.83665     15.54216     16.56647         0.117830      0.020998     -0.309071
Pb      15.49600      3.85066      4.09221         0.631453      0.237664      0.440909
Pb      15.58090      3.82081     16.59357        -0.410713      0.380291     -0.275424
Pb       0.01568     15.57457      4.08139        -0.209379      0.228020      0.809742
Pb       0.05010      0.00405      0.00373        -0.364527     -0.221349     -0.425196
Pb       3.87990      3.88248      8.28435         0.201770     -0.147378      0.275089
Pb       3.97786      0.12619      8.33003        -0.005448     -0.621220     -0.143189
Pb      15.54670      3.93883      8.23173         0.078366     -0.454033      0.364663
Pb       0.05890     15.59679      8.26619         0.148191      0.182777     -0.195173
Pb       3.70947      4.00462     12.59866         0.750712     -0.573509     -0.171614
Pb       3.80877     15.46598     12.48088         0.100819      0.258072     -0.147736
Pb      15.56613      3.86983     12.44681        -0.122457     -0.324005     -0.083654
Pb       0.07842     15.59751     12.46068        -0.136113     -0.546576     -0.210563
Pb       3.74649      7.86070      4.03186         0.168907     -0.640281      0.597596
Pb       3.81243      7.67956     16.56935         0.346777      0.701459      0.125709
Pb       0.01561      7.88857      4.02494         0.163217     -0.488350      0.417280
Pb      15.56612      7.77867     16.60199        -0.153749     -0.033857      0.061669
Pb       3.95032      7.78736      8.32801        -0.357616      0.245313     -0.348643
Pb      15.44144      7.77251      8.48128         0.554801      0.259658     -0.882032
Pb       3.87121      7.85539     12.52439         0.099702     -0.141144     -0.503030
Pb      15.45100      7.72452     12.47820         0.342211      0.495662     -0.191906
Pb       3.90312     11.71213      4.12101        -0.231037      0.013988      0.102866
Pb       3.87744     11.67894     16.53836         0.207857     -0.445553     -0.509907
Pb      15.59072     11.80717      4.10899         0.080790     -0.219826      0.298739
Pb       0.01613     11.80777      0.06603        -0.075242     -0.131390     -0.133097
Pb       3.85319     11.82381      8.32102         0.162980     -0.604007     -0.484478
Pb      15.47801     11.68280      8.17242         0.920614     -0.263217      0.225651
Pb       3.82673     11.77579     12.40561        -0.157164     -0.377199     -0.294857
Pb      15.60170     11.53794     12.40904         0.162067      0.505601     -0.342782
Pb       7.73244      3.74943      4.11856        -0.016939      0.193735      0.084678
Pb       7.65356      3.79255     16.56412         0.980161     -0.015328      0.238487
Pb       7.72795     15.51955      4.11892        -0.152013      0.348378     -0.185130
Pb       7.78140     15.58542      0.00988         0.254694      0.040015     -0.025029
Pb       7.74536      3.85407      8.46716        -0.238022     -0.017036     -0.355051
Pb       7.87309     15.54840      8.40769        -0.863773      0.029989     -0.293167
Pb       7.79474      3.81511     12.51127        -0.442673      0.096987     -0.599765
Pb       7.89245      0.03787     12.53012        -0.594214     -0.043948     -0.570691
Pb       7.75453      7.79861      4.01367         0.087371      0.024480      0.745718
Pb       7.75811      7.83990     16.53834         0.371797     -0.212244     -0.328060
Pb       7.94347      7.85724      8.30601        -0.517654     -0.078963     -0.428988
Pb       7.93790      7.65374     12.47241        -0.573342      0.523294     -0.167720
Pb       7.80056     11.77212      4.03694         0.039661     -0.261920      0.632151
Pb       7.77018     11.65338     16.52014         0.110216      0.073856      0.032422
Pb       7.68197     11.69006      8.29412        -0.427461      0.048464     -0.457983
Pb       7.80737     11.58368     12.47745        -0.105091      0.131290     -0.725324
Pb      11.76112      3.93125      4.29073        -0.274452     -0.174071     -0.254104
Pb      11.75747      4.02149      0.11245        -0.010772     -0.621350     -0.577987
Pb      11.59497      0.08783      4.18996         0.041436      0.099752      0.264176
Pb      11.64672     15.58173     16.55998         0.228016     -0.163350      0.004105
Pb      11.63526      4.02656      8.36757         0.365570     -0.419745     -0.360689
Pb      11.49863     15.55914      8.26531         0.520758      0.500596     -0.048974
Pb      11.74905      3.76849     12.45775         0.170427      0.251250     -0.418945
Pb      11.66126     15.48490     12.39031         0.360044      0.125936     -0.018318
Pb      11.75082      7.62282      3.97630        -0.391045      0.734204      0.476164
Pb      11.66872      7.78431      0.01202        -0.182827      0.421030     -0.472788
Pb      11.65212      7.83696      8.16946         0.024474     -0.307438      0.119855
Pb      11.54479      7.86193     12.51236         0.343177     -0.100122     -0.168789
Pb      11.72105     11.60862      4.30975        -0.086200     -0.018288     -0.603282
Pb      11.89800     11.72402     16.58584        -0.703408     -0.065488     -0.084549
Pb      11.75266     11.78362      8.37270        -0.080761      0.117969     -0.776886
Pb      11.62852     11.68719     12.34719         0.353042     -0.127976      0.371200
Ti       1.92368      1.95182      2.11417         0.231943      0.925442      0.701294
Ti       1.92561      1.94600     14.61882        -0.159560     -0.703673     -0.935991
Ti       1.91204     13.81172      2.18737         0.541747     -1.762923      0.765505
Ti       1.88738     13.58903     14.67434        -0.039073      0.121026     -0.757281
Ti      13.59837      1.92734      2.18459         0.051637     -0.047024      0.222111
Ti      13.66604      1.77218     14.62765        -0.626188      0.783194      0.010350
Ti      13.59970     13.75325      2.26103         0.831751     -1.024756     -0.704892
Ti      13.68142     13.57278     14.65823         0.042970      0.178395     -0.344106
Ti       2.00145      1.86794      6.29865        -0.590490     -0.128605      0.817087
Ti       1.99133     13.60118      6.37046        -0.168886      0.146836     -0.139160
Ti      13.61349      1.90068      6.44012         0.031927      0.205348      0.595643
Ti      13.61340     13.71177      6.43272         0.143343     -0.427959     -0.226544
Ti       1.98074      1.93346     10.53564        -0.589045     -0.527270     -0.068304
Ti       1.96666     13.64714     10.44586        -1.172596     -1.395379     -0.456576
Ti      13.70827      1.91466     10.51699         0.138036      0.296566     -1.342423
Ti      13.66865     13.64236     10.44429         0.990068     -0.525155      0.160098
Ti       1.95440      5.78215      2.17905         0.262340      0.367966      0.405905
Ti       2.01550      5.81741     14.66613        -1.118081      0.525935      0.714135
Ti      13.62790      5.75306      2.25822         0.721877      0.793301      0.217226
Ti      13.67614      5.71957     14.62509        -0.080873     -0.034548      1.159384
Ti       2.00306      5.70305      6.42178        -1.012452      1.310304     -0.686579
Ti      13.63248      5.85051      6.42022         0.359741     -0.111754     -0.783485
Ti       1.96570      5.70265     10.50977        -0.252723      1.386961     -1.131608
Ti      13.63604      5.86374     10.58205        -0.912831     -0.114871      0.162367
Ti       1.92073      9.79810      2.10511        -0.205225     -0.387652      0.955394
Ti       1.86859      9.68083     14.69593         0.564771      0.649504     -0.136790
Ti      13.64864      9.82700      2.16948        -0.522930     -0.979027      0.462621
Ti      13.66833      9.67929     14.73163        -0.127972      0.503337      0.496831
Ti       1.98915      9.64399      6.45966        -0.342006      0.199017     -0.418392
Ti      13.64315      9.75229      6.25814         1.110148     -0.133503      0.042291
Ti       1.97147      9.59845     10.47515        -0.474720      0.953251     -0.581594
Ti      13.62235      9.71658     10.48386         0.122502     -0.071622     -0.191635
Ti       5.81037      1.97646      2.08289         0.343942     -1.189904      1.212554
Ti       5.81044      1.85224     14.62538         0.261641      0.730906     -0.391182
Ti       5.85431     13.60902      2.13278        -0.275786      1.012067      0.756762
Ti       5.82253     13.63697     14.67401         0.186667     -0.426842      0.905769
Ti       5.83945      1.97748      6.43114         0.290344     -0.705191     -0.049165
Ti       5.82796     13.70089      6.29125        -0.127045     -0.567475      1.272403
Ti       5.75231      1.93721     10.62041         0.771834      0.014503     -0.540133
Ti       5.86679     13.72369     10.54555         0.735771     -0.501262     -1.374383
Ti       5.89878      5.88296      2.09810        -1.096626      0.009836      0.253519
Ti       5.90907      5.76412     14.75406         0.117290      0.836406     -1.581865
Ti       5.84240      5.82929      6.36797         1.139387      0.137202      0.141640
Ti       5.75268      5.87518     10.55834         1.043072     -0.384736      0.974255
Ti       5.82651      9.77008      2.13970        -0.331986     -0.429760     -0.264817
Ti       5.87834      9.69179     14.54911        -0.817515     -0.034219      3.291280
Ti       5.87596      9.67719      6.26452         0.053465      0.839776      1.261305
Ti       5.74485      9.74619     10.45166         1.280601      0.396404      1.051092
Ti       9.71861      1.93350      2.21118        -0.444148     -0.145773     -0.792211
Ti       9.82426      1.90203     14.69561        -0.107378      0.077146      0.713732
Ti       9.91287     13.64216      2.20252        -1.553858     -0.500717     -0.685614
Ti       9.75021     13.64460     14.63918         0.553802     -0.788748      0.984643
Ti       9.62247      2.00122      6.38142         0.399766     -0.584800      0.629277
Ti       9.66435     13.64985      6.34289         0.029682     -0.236798      0.770354
Ti       9.77520      1.94975     10.55530        -0.478281     -0.106658     -0.310632
Ti       9.71732     13.65037     10.50988        -0.893283     -0.847309      0.532122
Ti       9.65246      5.80344      2.16084         0.587703     -0.341636      0.380686
Ti       9.80220      5.73549     14.67109        -0.476425      1.104163      0.801188
Ti       9.64680      5.84213      6.37102         0.225587      0.576634      0.428333
Ti       9.75166      5.82226     10.50409         0.097612      0.531709      0.107375
Ti       9.70002      9.71622      2.19491         1.130450      0.638887     -0.480331
Ti       9.77063      9.82214     14.66339         0.473476     -1.222794      0.028199
Ti       9.80434      9.80656      6.33780        -1.139711     -0.763843      1.702283
Ti       9.73604      9.70889     10.46223        -0.534603      0.209815      1.548017
O       1.90750      1.95246      0.32773         0.202134     -0.112744     -0.565515
O       1.87963      1.96266     12.77154         0.085058     -0.371499      1.864234
O       1.82399     13.69927      0.43824         0.377899      0.417902     -0.972864
O       1.93602     13.63013     12.88444        -0.099869     -0.162567     -0.305758
O      13.65065      1.88754      0.42475         0.105207      0.100817      0.108051
O      13.70684      1.81498     12.81341        -0.325512      0.218381      0.386721
O      13.76922     13.58463      0.45043        -0.552067      0.618273      1.047756
O      13.76478     13.52942     12.89859        -0.280497      0.285244     -0.727922
O       2.10201      1.91147      4.53219        -0.086363      0.069879     -0.307155
O       2.02032     13.75667      4.53080         0.026644     -0.649132     -0.085772
O      13.57361      1.89371      4.65586        -0.056989      0.214641     -0.265114
O      13.65830     13.63919      4.63893        -0.296028      0.155203     -0.513968
O       2.03982      1.84183      8.74766        -0.141446      0.192622      0.313280
O       1.83880     13.70434      8.64578         0.374589     -0.194713      0.747934
O      13.76531      2.09365      8.71567        -0.220630     -0.859878      0.799260
O      13.64879     13.49800      8.60999         0.019477      0.156099      1.271817
O       2.03927      5.84180      0.37093        -0.228121     -0.394327      0.250027
O       1.87530      5.88666     12.89805         0.539478     -0.105291     -0.354925
O      13.63901      5.54044      0.49249        -0.044021      0.633761      0.111455
O      13.63756      5.78357     12.84583         0.271617      0.136031      0.390920
O       2.01925      5.79358      4.63043        -0.057149     -0.353136      0.507314
O      13.64137      5.71527      4.58059        -0.384078     -0.016955      0.373731
O       1.97907      5.61099      8.69388         0.131012      0.022507      0.913910
O      13.56552      5.92496      8.80798         0.267115     -0.291264     -0.443720
O       1.91053      9.71329      0.36285         0.317145     -0.148127     -0.758372
O       1.82591      9.77380     12.90619         0.446692     -0.636264     -0.150917
O      13.62879      9.70268      0.36249        -0.067189      0.304475      0.627946
O      13.80268      9.71620     12.97893        -0.337522     -0.235651     -0.863987
O       1.99122      9.64591      4.61070        -0.121642      0.015967      0.474459
O      13.69859      9.88095      4.46314         0.082669     -0.541498      0.656346
O       1.96621      9.69806      8.69426         0.086163     -0.133757      0.586770
O      13.81736      9.65986      8.69323        -1.010743      0.250377      0.249350
O       5.96272      1.92826      0.32999        -0.290750      0.037368     -0.480419
O       5.89838      1.87149     12.80241         0.015459      0.182535      1.184048
O       5.90040     13.60815      0.34872        -0.386895      0.080851      0.165052
O       5.76094     13.66472     12.95719         0.141926      0.283377     -0.910858
O       5.78746      1.99116      4.63765         0.080298      0.182174     -0.696872
O       5.76343     13.62682      4.51121        -0.287736      0.273387     -0.428788
O       5.71333      1.80074      8.78343         0.180513      0.576709      0.765489
O       6.01023     13.75501      8.68264        -0.348042     -0.255383      1.721638
O       5.85991      5.76738      0.30211        -0.021661     -0.088226      0.492233
O       5.81461      5.79524     12.93382         0.035951     -0.316521      0.260304
O       6.01213      5.78956      4.62286        -0.408638     -0.208676     -0.996597
O       5.79434      5.88942      8.82998        -0.097422     -0.138988     -1.061813
O       5.81029      9.90166      0.35297         0.048663     -0.310595      0.938287
O       5.94535      9.78763     12.87610        -0.334300     -0.284172     -1.846178
O       6.00846      9.72008      4.49415        -0.636014     -0.061019     -0.064855
O       5.67448      9.80182      8.69341         0.595057     -0.213636      0.764050
O       9.70136      1.78462      0.39264         0.262690      0.278894      0.712836
O       9.83165      1.87625     12.91352         0.074922     -0.083902     -1.123658
O       9.93265     13.61235      0.38628        -0.414604      0.005615      0.786029
O       9.81595     13.58010     12.88583        -0.050221      0.434966     -0.644328
O       9.64049      1.89867      4.60695         0.064901      0.167752     -0.131772
O       9.79340     13.55175      4.62347        -0.005230      0.652731     -1.072369
O       9.68818      2.02200      8.79466         0.221876     -0.200213      0.089254
O       9.59224     13.63186      8.74411         0.290718     -0.314975     -0.679226
O       9.69590      5.72510      0.41204         0.374572      0.084512     -0.544290
O       9.63618      5.92457     12.91630         0.573568     -0.318396     -0.289089
O       9.70629      5.89173      4.61919        -0.065341     -0.332990     -0.842245
O       9.86312      5.83790      8.71579        -0.383693      0.084733      0.286972
O       9.86423      9.82261      0.42294        -0.447138     -0.062706      0.494627
O       9.69997      9.60985     12.85813         0.275857      0.507158      0.654916
O       9.53088      9.52451      4.69310         0.083730      0.524348     -2.615870
O       9.75873      9.63334      8.71970         0.219736      0.471475     -0.721037
O       3.89933      1.99210      2.35081        -0.225042     -0.195170      0.100990
O       3.91637      1.95083     14.92572        -0.179416     -0.210920      0.079217
O       3.83041     13.72969      2.36548         0.077283     -0.436938      0.165337
O       3.81217     13.66542     14.87706         1.364584      0.251000      1.088311
O       0.02831      1.93802      2.48659        -0.852770      0.142417      0.079021
O      15.58027      1.94915     14.89558         0.624856     -0.049549      0.315866
O      15.55284     13.67120      2.53939        -0.037812      0.267930      0.314164
O       0.06192     13.82133     15.10594        -0.853433     -0.691405     -0.372462
O       3.94850      2.04878      6.69970        -1.242645     -0.045418     -0.051102
O       3.93230     13.58351      6.73085        -0.406925      0.115657     -0.311584
O      15.59363      1.71628      6.57483         0.076101      0.450549      0.159024
O       0.08259     13.54367      6.52701        -1.222011      0.724600      0.393683
O       3.83208      1.82916     10.95401         0.708155      0.601868     -0.248557
O       3.90459     13.62904     10.66837         0.002006     -0.028865      0.624202
O       0.05374      1.99688     10.77858        -0.533915     -0.743795      0.283476
O      15.58341     13.50297     10.82084        -0.423445      0.416955     -0.382114
O       3.92273      5.91485      2.51555         0.589086     -0.958622     -0.314629
O       3.92819      5.81087     15.03921        -0.427699     -0.047784     -0.401824
O      15.59801      5.77212      2.60278        -0.157071     -0.183217     -0.523669
O      15.56155      5.76678     15.10214         0.327159      0.079472     -0.522738
O       3.98034      5.69829      6.63049        -1.127177     -0.206297      0.309751
O      15.59197      5.73483      6.70104        -0.144499      0.400508      0.040251
O       3.86192      5.61043     10.86495         0.192032      0.095765      0.129428
O       0.01872      5.94591     10.82933        -0.167259     -0.390616     -0.088026
O       3.84257      9.60744      2.54503         0.410562      1.245893     -0.633798
O       3.87017      9.71816     14.96588         0.236093     -0.063954     -0.268232
O      15.60156      9.57552      2.40962        -0.271873      0.273505      0.036530
O       0.01474      9.68862     14.98882        -0.494069     -0.102756      0.459103
O       3.89836      9.83259      6.75972         0.404451     -0.543096     -0.788157
O      15.57134      9.73772      6.62335         0.034784     -0.103626     -0.045276
O       3.91821      9.86593     10.85370        -0.165465     -0.469724      0.383307
O       0.05149      9.53256     10.70372        -0.197848      0.182514      0.698094
O       7.73560      1.74600      2.55598         0.257527      0.454540     -0.218267
O       7.93086      1.75708     14.97596        -0.594549      0.420127     -0.251260
O       7.75152     13.75204      2.58283        -0.006913     -0.791399     -0.703204
O       7.82293     13.74665     15.00189        -0.056830     -0.352508     -0.363701
O       7.72001      2.00075      6.86686         1.209980     -0.489884     -0.380665
O       7.70952     13.77314      6.61964         1.206855     -0.456460     -0.196981
O       7.79043      1.88328     10.82466         0.957346     -0.273031      0.415401
O       7.78900     13.76046     10.95571         0.401290     -0.282977     -0.078946
O       7.80464      5.89000      2.41125        -0.728142      0.032145      0.164654
O       7.80172      5.91511     14.97149         0.701680     -0.463589      0.191268
O       7.79155      6.00532      6.70128         0.309224     -0.782485      0.450625
O       7.82588      6.03991     10.77285         0.021930     -0.568311      0.071863
O       7.76022      9.76337      2.43033         0.280272      0.027955     -0.207436
O       7.82377      9.75405     15.04062        -0.378996     -0.296365     -0.204878
O       7.74967      9.79865      6.82360         0.052446     -0.381826     -0.271713
O       7.79646      9.69468     10.82695        -0.265543     -0.142318     -0.455893
O      11.62251      1.99511      2.58610         0.546174     -0.207192     -0.164162
O      11.74791      1.91791     15.08479         0.033692      0.069302     -0.467480
O      11.71067     13.64305      2.52969         1.036607     -0.215074      0.262364
O      11.79669     13.49984     14.94221        -0.602663      0.136581      0.096640
O      11.66119      1.83490      6.75978        -0.465974      0.525523     -0.332214
O      11.66333     13.67816      6.80667        -0.294684     -0.373793     -0.320798
O      11.77744      1.91712     10.79179        -0.937148      0.080864      0.351514
O      11.65401     13.53263     10.80322         0.877085      0.185053     -0.199413
O      11.59697      5.63214      2.55734         0.828745      0.286846     -0.191691
O      11.74073      5.76609     15.05405        -0.109029     -0.079868     -0.212854
O      11.68813      5.81476      6.72000         0.047359     -0.026897     -0.220330
O      11.67421      5.82766     10.90091         0.245287     -0.367312      0.116246
O      11.68549      9.68847      2.64142         0.178274      0.394809     -0.256879
O      11.69335      9.81891     14.97807         0.745896      0.058584     -0.144549
O      11.70142      9.76127      6.48065         0.589120      0.001419      0.409789
O      11.69573      9.68075     10.82001         0.160398      0.445558     -0.009784
O       1.98149      3.86697      2.44480        -0.047711     -0.160894      0.069096
O       2.08471      3.92293     14.83797        -0.548087     -0.849843      0.401936
O       1.78183      0.03361      2.45714         0.758954      0.315036     -0.203483
O       1.91734     15.60435     14.83580         0.440788      1.089438      0.641842
O      13.64766      3.81180      2.57678        -0.166177     -0.056940      0.138886
O      13.67772      3.80682     15.03157        -0.170389      0.448164     -0.530413
O      13.59131      0.02441      2.58712         0.034898     -0.226079     -0.190026
O      13.61270     15.51883     14.89315         0.147557      0.893355      0.407504
O       1.81169      3.74237      6.72427         0.711955      0.689319     -0.332864
O       2.04703     15.56057      6.64357        -0.040215      0.354616      0.017259
O      13.62211      3.91729      6.78430        -0.142764     -0.644060     -0.491562
O      13.53636     15.55654      6.86533         0.582131      0.258673     -0.426593
O       1.87844      3.85321     11.01044         0.321484      0.056767     -0.652863
O       1.94351     15.48235     10.88131        -0.272489      1.101496     -0.065920
O      13.67304      3.86171     10.85871         0.011500      0.434786      0.248003
O      13.68064     15.49573     10.70144        -0.078741      0.392592      0.116634
O       1.97725      7.67696      2.50661        -0.560709      0.665440     -0.058211
O       1.85558      7.75392     15.00593         0.540528     -0.180517     -0.078703
O      13.63682      7.71727      2.49431        -0.304559     -0.591055     -0.139324
O      13.61488      7.77665     15.10064         0.219754     -0.737279     -0.462953
O       2.00163      7.69328      6.81477         0.114993      0.075697     -0.347606
O      13.66185      7.78137      6.65275        -0.209183      0.081567     -0.188186
O       2.23205      7.67870     10.61315        -0.232985      0.416469      0.744628
O      13.62196      7.80741     10.82058         0.114877     -0.684792      0.517916
O       1.73688     11.64517      2.34299         0.815683      0.501774      0.530475
O       1.88912     11.71630     15.02436         0.016414     -0.445826      0.053037
O      13.70466     11.64925      2.49271        -0.139476      0.890642     -0.101756
O      13.80848     11.73785     15.05741         0.040444     -1.270584      0.023441
O       1.93652     11.64711      6.78574         0.282181      0.389843     -0.604919
O      13.62404     11.71004      6.66633        -0.449748     -0.533892     -0.029534
O       1.97321     11.64436     10.86331        -0.060854      0.250100     -0.247328
O      13.57669     11.57848     10.83021         0.359477      0.575153     -0.268728
O       5.94083      3.87932      2.37187        -0.129742      0.236992      0.265042
O       5.96985      3.80234     14.97091        -0.282514      0.029756     -0.136600
O       5.72015      0.01149      2.53001         0.278302     -0.454375     -0.461518
O       5.92268      0.05725     15.06323        -0.805129     -1.442997     -0.209667
O       5.95028      3.86078      6.73108        -0.138785      1.140599      0.394526
O       5.73866      0.05587      6.67267         0.151170     -0.632492     -0.389321
O       6.04627      3.84844     10.75850        -0.517915      0.123155      0.297437
O       5.83679     15.58551     10.91740        -0.189453     -0.050724      0.084055
O       5.81990      7.80207      2.31057         0.478838     -0.131928      0.142312
O       5.86635      7.71181     14.98085        -0.130663      1.188160     -0.010667
O       5.86620      7.77917      6.64860        -0.442959      0.445715     -0.002305
O       5.63259      7.75647     10.94199         0.102405      0.744023     -0.484234
O       5.76190     11.69227      2.57913        -0.009260      0.329803     -0.585049
O       5.84682     11.66133     14.97032         0.081134      0.817402     -0.214722
O       5.89455     11.74639      6.63886        -0.094250     -0.287232     -0.059180
O       5.94622     11.76091     10.95986        -0.333690     -0.481593     -0.682307
O       9.53830      3.80265      2.52754         0.272550      0.347533     -0.222686
O       9.76872      3.85532     14.87621        -0.116287      0.043567      0.135197
O       9.81463     15.51106      2.52376        -0.075854      0.627871      0.334144
O       9.99700     15.49903     14.89053        -0.439717      0.580850      0.082979
O       9.66577      3.87643      6.71700         0.206832      0.326439     -0.162430
O       9.65537     15.58863      6.61722         0.316922      0.305969      0.506386
O       9.69865      3.91913     10.84065         0.180389     -0.511188      0.292687
O       9.82084     15.52189     10.67414         0.110523      1.333708      0.900962
O       9.82111      7.80238      2.38510        -0.396674     -0.755567      0.223106
O       9.91397      7.81654     15.04134        -0.597666     -0.467269      0.065258
O       9.75694      7.81783      6.68950         0.104770     -0.466437      0.565829
O       9.88760      7.82701     10.90142        -0.726853     -0.851609     -0.418341
O       9.77093     11.69615      2.74045        -0.065659     -0.252296     -0.848993
O       9.70417     11.66241     14.95787        -0.090449      0.729138     -0.092636
O       9.78870     11.69448      6.57461        -0.274179      0.405679      0.509225
O       9.70445     11.67299     10.92743         0.045142     -0.260069     -0.644848
