  # total energy = -7882.55759515 
CRSYTAL
PRIMVEC
    15.6080000000000005    0.0000000000000000    0.0000000000000000
     0.0000000000000000   15.6080000000000005    0.0000000000000000
     0.0000000000000000    0.0000000000000000   16.6239999999999988
PRESSURE
-0.625551 -0.445056 0.16603 -0.282173 0.271753 -0.006044
PRIMCOORD
320 1
Pb       3.87853      3.78931      4.08573         0.313350      0.765271      0.629609
Pb       3.80624      3.79977      0.05236        -0.067476      0.121272     -0.238849
Pb       3.90852     15.54309      4.18970         0.179265     -0.018275      0.283281
Pb       3.87440     15.52690      0.04221         0.188190      0.376147     -0.324850
Pb      15.46944      3.83067      4.12761         0.124160      0.045322     -0.284944
Pb      15.55634      3.88774     16.55150         0.329862     -0.469411      0.538579
Pb       0.08986      0.00353      4.15771        -0.340716     -0.186523     -0.263328
Pb       0.07400     15.56570     16.62257        -0.393444      0.531513      0.111669
Pb       3.95128      3.96018      8.34782        -0.113839     -0.082145     -0.619182
Pb       3.94090      0.16193      8.44174        -0.387692     -0.753523     -0.020197
Pb       0.00874      3.91263      8.23106        -0.368868      0.448886     -0.039203
Pb       0.09430      0.04035      8.28151        -0.441100     -0.056515     -0.016469
Pb       3.80780      4.00351     12.48139        -0.230747     -0.032793     -0.330339
Pb       3.82668     15.49887     12.36679         0.211747      0.733914      0.747584
Pb      15.55003      3.77743     12.27661        -0.301878      0.261039      0.648885
Pb      15.54782     15.59196     12.40829         0.181471      0.282758      0.221216
Pb       3.79076      7.78377      4.14956         0.773803      0.185863     -0.216251
Pb       3.76955      7.77249     16.56903         0.329202     -0.360938      0.394343
Pb      15.58802      7.84591      4.02573        -0.299484     -0.034230      0.563307
Pb      15.60774      7.79978     16.61474        -0.080690     -0.143376     -0.111219
Pb       4.01774      7.81740      8.26491        -0.379893      0.248476     -0.025162
Pb      15.59056      7.82945      8.29123        -0.095275     -0.169982     -0.264642
Pb       3.80143      7.85638     12.54447        -0.231033      0.197430     -0.156306
Pb      15.54790      7.75606     12.43021        -0.318233     -0.322674      0.183332
Pb       3.94801     11.70710      4.17873         0.100583     -0.924427      0.518443
Pb       3.87865     11.67402     16.51241        -0.031607     -0.097777      0.465466
Pb       0.02811     11.81797      4.14602        -0.363757     -0.384543      0.270650
Pb       0.06340     11.78593      0.08339        -0.259222     -0.448005     -0.372002
Pb       3.88020     11.66001      8.26948        -0.066173     -0.016441      0.480730
Pb      15.44846     11.71635      8.26613        -0.036469     -0.530787      0.303528
Pb       3.77349     11.82981     12.50849         0.446117     -0.685134      0.182942
Pb      15.52617     11.54633     12.37529        -0.401857      0.358835      0.081581
Pb       7.72388      3.88633      4.08655         0.488262      0.188058      0.658529
Pb       7.61028      3.69369     16.61115         0.407412      0.244330      0.439255
Pb       7.70257     15.59116      4.06676         0.631954     -0.539052      0.738342
Pb       7.76242     15.45726      0.03051         0.375713      0.346574     -0.479215
Pb       7.76404      3.92911      8.32806         0.431693      0.007404     -0.540769
Pb       7.82143     15.53307      8.44519         0.448567      0.021012     -0.141498
Pb       7.77431      4.00250     12.49297         0.319814     -0.059015     -0.114309
Pb       7.89034      0.10489     12.51466        -0.087261     -0.127018     -0.293051
Pb       7.62685      7.79369      3.97276         0.583891     -0.064235      0.305178
Pb       7.87084      7.83472     16.53588        -0.355510     -0.422394      0.107344
Pb       7.85944      7.82368      8.42038         0.247423      0.152661     -0.793296
Pb       7.85882      7.76489     12.54275         0.272726      0.128883     -0.186660
Pb       7.73490     11.77702      4.04991         0.459944     -0.215861      0.465857
Pb       7.79297     11.55231     16.59378         0.263733      0.340887     -0.190830
Pb       7.62755     11.65574      8.33500         0.012249     -0.232808      0.299470
Pb       7.74553     11.63321     12.50765        -0.218506     -0.099775     -0.082196
Pb      11.69089      4.01208      4.22826         0.003009     -0.261015     -0.583145
Pb      11.76123      3.85000     16.51908        -0.321221      0.408151      0.569349
Pb      11.78314      0.20725      4.21533        -0.242835     -0.661766     -0.219300
Pb      11.69034     15.56100      0.01187        -0.058137     -0.203303     -0.246027
Pb      11.64895      3.85619      8.25483         0.485310      0.328052     -0.051895
Pb      11.51424     15.46467      8.20626         0.749148     -0.064348      0.466439
Pb      11.64307      3.82932     12.42980         0.409581      0.239961      0.048888
Pb      11.82293     15.51229     12.41328        -0.941858      0.272841      0.772038
Pb      11.75391      7.70177      4.00791        -0.366359      0.479445     -0.066052
Pb      11.64713      7.73798     16.58617         0.384775      0.093491      0.095530
Pb      11.68534      7.84830      8.08784        -0.034320     -0.270491      0.897682
Pb      11.72040      7.70219     12.49231        -0.083487     -0.258796     -0.147705
Pb      11.58907     11.84669      4.28946         0.693469     -0.264377     -0.811627
Pb      11.87529     11.77748     16.59664        -0.004446     -0.114665      0.077514
Pb      11.69694     11.65724      8.22936         0.423225     -0.319673      0.129527
Pb      11.56860     11.61998     12.34210         0.792045      0.135066      0.729613
Ti       2.02733      1.93557      2.34593        -1.394316     -0.264500     -1.735185
Ti       1.93140      1.86102     14.79149        -0.717217      0.250834      0.256757
Ti       2.17640     13.53147      2.25265        -2.035440      0.667287      0.124862
Ti       1.96267     13.62942     14.65100         0.062455     -0.356553     -0.117469
Ti      13.65700      1.90215      2.21282         0.462211      0.271247      0.243958
Ti      13.54625      1.98490     14.76277         1.753024     -0.508593     -1.330013
Ti      13.72177     13.63421      2.25135        -0.559024      0.310873      1.541992
Ti      13.71283     13.72075     14.62593        -0.366787     -0.568193     -0.180155
Ti       1.90434      2.04549      6.36502        -0.136571     -1.230703     -0.509153
Ti       1.94943     13.62935      6.44512        -0.052282      0.201076      0.160313
Ti      13.59552      1.95375      6.32012         0.445878     -0.017685      0.009780
Ti      13.69358     13.69721      6.31543        -0.242581     -0.565061      0.287133
Ti       1.99263      1.88109     10.54576        -1.164691      0.711517      0.369407
Ti       1.87390     13.56821     10.48516        -0.101634      0.438463      0.430594
Ti      13.57857      1.87384     10.39503         0.726614      0.196146      0.252694
Ti      13.60816     13.65848     10.53945         0.481442     -1.048284      0.863793
Ti       1.95168      5.80695      2.23859        -0.411770     -0.212711     -0.811566
Ti       1.89929      5.74911     14.67545         0.336726      0.204238     -0.038126
Ti      13.72265      5.84909      2.11387        -0.941338     -0.201954      0.366809
Ti      13.66031      5.91050     14.77127        -0.032443      0.123323     -1.461297
Ti       2.03529      5.91112      6.25929        -0.883844      0.131594      0.800963
Ti      13.72746      5.84442      6.21473         0.449451     -0.102511      0.616439
Ti       1.91079      5.92130     10.45976        -0.792458     -0.796643      1.665244
Ti      13.63629      5.73582     10.40912        -0.044395      0.568226      0.142388
Ti       1.91506      9.73735      2.25627         0.565651     -0.027561     -0.558758
Ti       1.93545      9.76240     14.72978        -0.786509     -0.618265     -0.548340
Ti      13.59643      9.82466      2.26451        -0.185402      0.272881      0.781183
Ti      13.72915      9.79452     14.66164        -0.383967     -0.455298      0.153793
Ti       1.92751      9.71883      6.37390        -0.618403     -0.056230      0.525389
Ti      13.64509      9.69529      6.34573         0.065727      0.756288     -0.526519
Ti       1.87221      9.75613     10.53728        -0.111186     -0.388252      0.178694
Ti      13.53430      9.61098     10.58868         0.625620      0.880493     -1.179477
Ti       5.87345      1.84332      2.30661        -0.089943      0.412460     -1.519206
Ti       5.78518      1.93908     14.61727        -0.244529     -0.747382      0.331592
Ti       5.84481     13.53066      2.12388         1.020687      0.875348      0.015180
Ti       5.93549     13.66818     14.60346        -1.271955     -0.415114      0.994363
Ti       5.83942      1.87736      6.44514         0.447528      1.221556     -0.869542
Ti       5.83870     13.72588      6.52217         0.261716     -1.486156     -1.466583
Ti       5.90178      2.09502     10.56139         0.008668     -1.386039      0.596191
Ti       5.88472     13.65348     10.64971        -0.528151     -0.450977      0.171667
Ti       5.77036      5.73888      2.17099         0.502503      0.828147      0.973312
Ti       5.85255      5.82038     14.61239        -0.482833      0.314436      1.299040
Ti       5.96488      5.91154      6.37295        -0.151614     -0.287032     -0.569732
Ti       5.81166      5.92262     10.40215         0.182275      0.379513      1.493102
Ti       5.83167      9.75642      2.13155        -0.367047     -1.197191      1.541961
Ti       5.81564      9.75358     14.75734         0.129608     -0.387540     -1.187290
Ti       5.80458      9.73320      6.37091         0.459059     -0.008369     -0.948432
Ti       5.76455      9.72299     10.69777         0.018368      1.142048     -0.760444
Ti       9.77219      1.93192      2.25210         0.456288     -0.430898      0.244176
Ti       9.66532      1.96712     14.66573         0.161649     -0.697473     -0.744793
Ti       9.74400     13.68520      2.20660         0.951137     -0.080657      0.508529
Ti       9.79351     13.56949     14.68175         0.392920      1.067818     -0.675441
Ti       9.72714      1.88229      6.46353        -0.071474      0.054613     -1.118701
Ti       9.73365     13.48755      6.37403        -0.424320      1.650947     -0.066557
Ti       9.75707      1.95216     10.52540         0.273852     -0.687299      0.559363
Ti       9.71358     13.59418     10.63495         0.191394      0.814493      0.096222
Ti       9.73667      5.75324      2.14164         0.558288      1.154367      0.410719
Ti       9.71778      5.78501     14.73949         0.507666      0.446538     -0.558793
Ti       9.86360      5.79291      6.37324        -1.379747      0.469641     -0.602600
Ti       9.72396      5.82476     10.53311         1.044129      0.521065     -0.606848
Ti       9.77598      9.82109      2.13104         0.370260     -0.393309      1.224448
Ti       9.83973      9.75605     14.70112         0.234509     -0.648635     -0.458638
Ti       9.65614      9.73735      6.22939         0.230578     -0.672764      0.476128
Ti       9.64074      9.73403     10.52738         0.541640     -0.886667     -0.206920
O       1.94262      1.96658      0.51115         0.495084     -0.502636      0.945006
O       1.90418      1.68663     13.05511         0.025316      0.600643     -1.409721
O       2.11568     13.45931      0.47602         0.055528      0.205595      0.139427
O       1.91161     13.65207     12.88733         0.077264      0.019277      0.321535
O      13.66256      1.91872      0.43211        -0.339934     -0.192523     -0.501243
O      13.68073      2.01959     12.97643        -0.230587     -0.153980      0.352543
O      13.57022     13.66217      0.51470         0.054687     -0.045090     -1.589317
O      13.63261     13.70584     12.85030         0.300454     -0.120846      0.548615
O       1.93304      1.90321      4.54638         0.449990     -0.091220      0.559491
O       1.91056     13.61547      4.63920         0.475003      0.150945      0.294402
O      13.64750      1.95639      4.47959         0.293584      0.258813      0.819156
O      13.74889     13.57646      4.57722         0.197959      0.293940     -0.708845
O       1.86807      1.95617      8.77145         0.225547     -0.195730     -0.273747
O       2.01456     13.55060      8.71882        -0.167427      0.282777      0.001300
O      13.62695      1.79880      8.62741         0.058573      0.291065     -0.216493
O      13.57906     13.64316      8.81817        -0.169402      0.175476     -1.505309
O       1.88558      5.71741      0.44784         0.151584      0.229546      0.144698
O       2.16324      5.74856     12.87503        -0.779364      0.087107      0.539227
O      13.69778      5.96522      0.32678        -0.024577     -0.408518      0.145279
O      13.67466      5.88033     12.97462        -0.469233     -0.125871      0.082595
O       2.03946      6.00785      4.50946         0.029002     -0.566598     -0.568789
O      13.60741      5.83776      4.40661         0.116813     -0.140373      0.572896
O       1.77862      5.88007      8.74266         0.490501     -0.283018     -1.225127
O      13.78084      5.76017      8.63956        -0.304905      0.156363      0.224125
O       1.96654      9.81252      0.44293        -0.339276     -0.255490      0.581479
O       1.86745      9.61448     12.92731         0.311913      0.159359      0.453029
O      13.66230      9.88986      0.52010         0.078901      0.028358     -0.929595
O      13.67711      9.67620     12.85963         0.188533      0.234552      0.342732
O       1.98487      9.60855      4.61897         0.140378      0.230389     -0.709503
O      13.65732      9.70956      4.59168        -0.047725      0.105088     -0.166072
O       1.87102      9.75952      8.77874         0.300828     -0.360773     -0.296221
O      13.50707      9.74497      8.77165         0.190804     -0.526646      0.105046
O       5.86075      1.95008      0.43868         0.106168     -0.302744      1.324038
O       5.88742      2.00986     12.83467        -0.045419      0.142220      0.163445
O       5.74441     13.65530      0.35776         0.030261     -0.167463      0.081409
O       5.89270     13.45509     12.85795         0.109741      0.542797     -0.062972
O       5.79902      1.82972      4.56993         0.104823     -0.002957      1.637989
O       5.95061     13.67492      4.64326        -0.253338     -0.128058      1.604047
O       5.92520      1.97364      8.77107        -0.511414     -0.145024      0.002763
O       5.78644     13.45455      8.87217         0.030308      0.443648     -0.696121
O       5.98370      5.65363      0.46590        -0.107077      0.061335     -0.994760
O       5.90914      5.83569     12.82253        -0.474101     -0.075069      0.353272
O       5.79275      5.88440      4.58949         0.324777     -0.285233      0.402506
O       5.92410      5.93003      8.63430        -0.325184     -0.512730      0.016767
O       5.84970      9.59997      0.40857         0.209113      0.617015     -1.187393
O       5.77985      9.65745     12.91707         0.100703     -0.395923      1.158686
O       5.77105      9.74352      4.58259         0.110104      0.208152     -0.016342
O       5.89465      9.78690      8.89183        -0.393861     -0.297175     -0.759054
O       9.68947      1.84859      0.49565         0.186162     -0.056480     -0.559447
O       9.69714      2.10962     12.84042        -0.211453     -0.562861      0.992059
O       9.77680     13.78824      0.45425         0.082550     -0.107082     -1.079410
O       9.86218     13.57532     12.89860        -0.691010     -0.257626     -0.124501
O       9.83820      1.92888      4.68820        -0.205733     -0.143494     -0.460364
O       9.63121     13.62936      4.60933        -0.038417     -0.649887     -0.170512
O       9.75084      1.72747      8.75951         0.251504      0.331370     -0.482537
O       9.82159     13.69674      8.86557         0.027781     -0.192217     -0.435303
O       9.88115      5.92304      0.35360        -0.807608     -0.445372      0.229883
O       9.84569      5.80527     12.92985        -0.270356     -0.431350     -0.307533
O       9.88347      5.64720      4.58266        -0.080821      0.189818      0.376240
O       9.72028      5.90082      8.74480         0.031436     -0.276594     -0.233017
O       9.72696      9.65684      0.35425         0.240090      0.135241     -0.431825
O       9.78346      9.73885     12.91813        -0.224190      0.052144      0.028175
O       9.91019      9.97403      4.49640        -1.102714     -0.461949      0.599126
O       9.67132      9.69131      8.73441        -0.236153     -0.071932      0.490268
O       3.96286      2.02105      2.61440        -0.092511     -0.612849     -0.263991
O       3.81402      1.96195     15.04377         1.799016      0.136008      0.028982
O       4.04533     13.53987      2.72221        -0.926843     -0.235570     -0.493987
O       3.88817     13.34630     14.94482        -0.040213      1.075612     -0.549510
O       0.09982      1.77381      2.59504        -0.274122      0.217497     -0.128972
O       0.01297      1.82975     15.15373        -0.567110      0.074484     -0.057594
O       0.06338     13.62452      2.44682         0.718692      0.424289      0.226602
O       0.03022     13.56515     14.95736         0.074536      0.640915      0.544506
O       3.84726      1.81665      6.85205         0.797143      0.635275     -0.576515
O       3.90646     13.67047      6.78935        -0.170464      0.165529     -0.443697
O      15.56549      2.06496      6.65774         0.521817     -0.517688     -0.130603
O      15.59188     13.65088      6.83273         0.497047      0.036603     -0.412539
O       3.85035      1.98936     10.80964         0.895348     -0.259520     -0.156322
O       3.87869     13.63139     11.07951        -0.121785     -0.721934     -1.314714
O      15.55502      1.84544     10.89855         0.333910     -0.296184     -0.483058
O      15.57259     13.78492     10.78274         0.313881     -0.351518     -0.079549
O       3.86966      5.75501      2.39009         0.218526     -0.243077      0.387960
O       3.89466      5.69316     14.97531         0.506531     -0.242527      0.041848
O      15.55642      5.90726      2.46730         1.156369      0.016581      0.308635
O      15.58603      5.96564     14.93122         1.054045     -0.786844      0.245598
O       3.93693      5.99394      6.70120        -0.417281     -0.711914      0.192357
O      15.60677      5.84686      6.52560         0.364374     -0.470730     -0.005115
O       3.86338      5.76434     10.75533         0.500856      0.160146     -0.429959
O      15.52113      5.86058     10.86620         0.627674     -0.541650     -0.114994
O       3.94679      9.90898      2.44652        -0.198140     -0.318309      0.395746
O       3.86592      9.74563     15.08451         0.463242     -0.359317     -0.417130
O       0.07594      9.83339      2.72814        -0.328512     -0.599431     -1.002886
O       0.03991      9.65923     15.09046        -0.434611      0.296474     -0.204221
O       3.82959      9.61486      6.66067         0.623557     -0.071402      0.485404
O      15.52969      9.78111      6.75581         0.531061     -0.442669     -0.150177
O       3.82111      9.78970     10.96325        -0.206110     -0.554987     -0.272485
O      15.57646      9.70006     10.81788        -0.337530     -0.230803      0.284227
O       7.83159      1.86639      2.65519        -0.452953      0.596580     -0.511380
O       7.75889      1.80960     15.00313         0.024865      0.043938     -0.163436
O       7.73603     13.65719      2.37463         0.651575      0.184353      0.432639
O       7.74500     13.59062     15.02448         0.605457      0.066383     -0.006213
O       7.86080      1.90775      6.71728        -1.582161     -0.118208      0.075959
O       7.77857     13.48639      6.82156        -0.455708      0.576919     -0.011798
O       7.83896      1.85489     10.80476        -0.778603      0.319071      0.137373
O       7.75808     13.54022     10.80967         1.076650      0.293320      0.374624
O       7.79634      5.76911      2.66243         0.470620      0.118595     -0.820279
O       7.82970      5.89290     14.85580        -0.813707     -0.346707      0.279230
O       7.86487      5.73248      6.72649        -0.697005     -0.059639     -0.366296
O       7.84417      5.82066     10.83008        -1.260175      0.244460      0.047988
O       7.83555      9.74054      2.39867        -0.042524     -0.293675      0.326750
O       7.77675      9.65445     15.00409         0.120618      0.060058      0.033863
O       7.70431      9.62943      6.56033         1.021799      0.935690      0.299706
O       7.74139      9.64322     10.96478         0.910279      0.086738     -0.060336
O      11.77391      1.92927      2.54136        -0.841333     -0.054099     -0.235001
O      11.63971      2.02539     14.90778        -0.287694     -0.530445      0.545102
O      11.70637     13.56917      2.57380        -0.224879      0.370898     -0.052702
O      11.73878     13.56724     14.94341         0.035395      0.375596      0.537501
O      11.73489      2.00246      6.56356        -0.264903     -0.498270      0.664874
O      11.75561     13.54680      6.54325        -1.195950      0.098618      0.538140
O      11.72626      1.92739     10.80884        -0.871991      0.257908      0.034044
O      11.71621     13.58721     10.93934        -0.576133     -0.064796     -0.302428
O      11.77779      5.80167      2.38663        -0.546253     -0.118612      0.335427
O      11.74264      5.78474     14.99630        -0.661098      0.132633      0.289692
O      11.73590      5.78878      6.64933        -0.210425      0.124099      0.043582
O      11.69286      5.76013     10.74616         0.196246     -0.166132      0.321526
O      11.68840      9.89035      2.61385         0.269966     -0.285153     -0.742541
O      11.77426      9.63856     14.93661        -0.565999      0.729065      0.212099
O      11.63534      9.64684      6.70025        -0.075430      0.774484     -0.426129
O      11.65602      9.71766     10.83707        -0.281647      0.073386      0.130331
O       1.90321      3.84316      2.55654         0.197122      0.391116      0.452474
O       1.84876      3.78070     15.15517         0.245098      1.326309     -0.937672
O       2.29641     15.50178      2.50016        -0.698691     -0.090268      0.013349
O       2.03053     15.53922     15.17825        -0.091738     -1.160328     -0.145053
O      13.80451      3.88557      2.42800        -0.090735     -0.082191     -0.059928
O      13.65498      3.88816     15.03993         0.191205      0.146463      0.215102
O      13.67837      0.01586      2.59522        -0.000799     -0.631263     -0.083592
O      13.66940      0.00100     14.98113        -0.325033     -0.428396      0.298709
O       1.96789      3.90846      6.51075         0.454456      0.408246      0.629077
O       1.85420      0.04254      6.70457         0.177110     -0.678901      0.006959
O      13.62852      3.93968      6.57872         0.042544     -0.656882      0.071224
O      13.60115     15.59356      6.43185         0.324951      0.493738      0.548936
O       1.83355      3.83403     10.84080         0.497954     -0.037641      0.026965
O       1.99385     15.47282     10.86207        -0.025555      1.353732     -0.529552
O      13.67860      3.79560     10.69462         0.016017      0.463848      0.212936
O      13.51075      0.01148     10.91731         0.775101     -0.306464     -0.608070
O       2.04397      7.73580      2.47500        -0.266604      1.031323     -0.112341
O       2.00783      7.67674     15.03484         0.062799      0.326286     -0.123856
O      13.65672      7.90915      2.48595         0.044218     -0.837688     -0.086124
O      13.71650      7.86143     15.09749        -0.364192     -0.116422     -0.213151
O       1.83721      7.76199      6.66506         0.219578      0.210148      0.368288
O      13.69264      7.73856      6.55221        -0.395819      0.307437      0.481727
O       1.74651      7.75948     10.85263         1.311450      0.049562     -0.192685
O      13.62572      7.70370     10.87825        -0.218126      0.371772     -0.356617
O       1.93273     11.63630      2.62796         0.726525      0.982771      0.008253
O       1.88102     11.60976     14.94228         0.146199      0.803636      0.209698
O      13.78095     11.74944      2.59135        -0.250916     -0.247520     -0.114741
O      13.73886     11.72728     15.01194        -0.184447     -0.422488      0.029754
O       1.94201     11.61674      6.69249         0.159675      1.091354     -0.213645
O      13.65874     11.68915      6.60530        -0.276822     -0.217069      0.629502
O       1.77477     11.67106     10.86956         0.601730      0.373279      0.042327
O      13.75881     11.64437     10.75329        -0.449297      0.410057      0.570349
O       5.82918      3.84433      2.59277         0.377541     -0.281914      0.060178
O       5.96592      3.78133     15.05012        -0.519746      1.025499     -0.851880
O       5.85965     15.54348      2.50986        -0.469363      0.270444     -0.114966
O       5.67895     15.56293     14.87014         0.372933     -0.249798      0.126904
O       5.79158      3.80919      6.71741        -0.022065      0.046511      0.066031
O       5.92782     15.56856      6.90213        -0.342059      0.327321     -0.307433
O       5.88313      3.95013     10.73667         0.012507     -0.141391     -0.008938
O       5.88740     15.55813     10.90798        -0.306847      0.269448     -0.281954
O       5.78470      7.74725      2.53588         0.178579      0.333887     -0.351766
O       5.75770      7.67202     15.16224         0.212508      0.181851     -0.941280
O       5.93756      7.77935      6.66112        -0.412329     -0.027481      0.409417
O       5.78491      7.79720     10.70892        -0.083057     -1.284380      0.509709
O       6.04301     11.67612      2.49435        -0.948800     -0.100628     -0.396961
O       5.94455     11.63119     14.97302        -0.245196     -0.489572      0.245429
O       5.71736     11.61781      6.76829         0.323399      0.525007     -0.288766
O       5.88824     11.61002     10.96418        -0.265743      0.491931      0.119529
O       9.82466      3.85484      2.52207        -0.405458      0.064715     -0.151220
O       9.65062      3.84130     14.98866         0.080420     -0.011570      0.281983
O       9.75226     15.58211      2.59649         0.082420      0.368031     -0.008775
O       9.63890     15.47028     14.90327         0.466857      1.345552      0.342117
O       9.78136      3.79787      6.77010         0.012310      0.758642      0.358392
O       9.71685     15.45934      6.75609         0.009573      0.463197     -0.169049
O       9.69610      3.84361     10.77267         0.189792      0.132058     -0.094252
O       9.76362     15.54889     11.00413        -0.168595      0.207247     -0.315002
O       9.88067      7.72822      2.56051        -0.628425      0.169552     -0.417346
O       9.75037      7.75573     14.83172         0.134002      0.262650      0.800773
O       9.63167      7.76974      6.53970         0.618049     -0.097298      0.176408
O       9.77230      7.76811     10.85104        -0.304218      0.122561      0.266424
O       9.74700     11.73585      2.35466        -0.524121     -0.300278      0.263704
O       9.75466     11.68901     14.95120        -0.271089     -0.897335      0.629677
O       9.68269     11.66616      6.76274         0.336528     -0.853668     -0.266442
O       9.71010     11.65579     10.89335        -0.089752     -0.229050     -0.282438
