  # total energy = -7881.33727447 
CRSYTAL
PRIMVEC
    15.6080000000000005    0.0000000000000000    0.0000000000000000
     0.0000000000000000   15.6080000000000005    0.0000000000000000
     0.0000000000000000    0.0000000000000000   16.6239999999999988
PRESSURE
-0.384738 -0.386287 -0.797751 0.015578 -0.04701 0.012223
PRIMCOORD
320 1
Pb       4.04766      3.95287      4.24565        -0.408495      0.205320     -0.609105
Pb       3.94586      3.95867     16.54808        -0.396742     -0.023457     -0.144566
Pb       3.94188      0.09909      4.06305        -0.269056     -0.545166      0.299640
Pb       3.83022     15.60151     16.45528        -0.003330      0.026985      0.298400
Pb       0.01142      3.86057      4.13017        -0.243646     -0.008805      0.276685
Pb      15.57796      3.77168     16.60484         0.428555      0.124004     -0.114048
Pb      15.51717     15.60494      4.07972         0.010383     -0.112627      0.101434
Pb      15.58114      0.03933     16.59843         0.203138     -0.035524     -0.114315
Pb       3.82577      3.82455      8.24933         0.000334      0.536691      0.008714
Pb       3.97677      0.01827      8.19074        -0.039390     -0.128937     -0.112294
Pb      15.52282      3.90909      8.28361         0.312457      0.491128      0.563768
Pb       0.02260     15.57059      8.24302        -0.075370     -0.330830      0.085160
Pb       3.70703      3.94377     12.65007         0.178108     -0.105927     -0.544809
Pb       3.84600     15.49101     12.55475         0.000751     -0.199947     -0.587314
Pb      15.58917      3.94569     12.59766        -0.024036      0.093046     -0.855169
Pb       0.16025     15.56841     12.47056        -0.176706     -0.045218     -0.135015
Pb       3.76099      7.88749      4.00107         0.854793     -0.243174      0.379023
Pb       3.91975      7.65927     16.57442        -0.199675      0.360039      0.510943
Pb       0.06414      7.87155      4.09833         0.104396     -0.338142      0.396348
Pb      15.51276      7.74100     16.59584         0.362808      0.189575      0.141913
Pb       3.87397      7.75469      8.34224         0.020253     -0.288858     -0.089117
Pb      15.35403      7.72140      8.53107         0.678492     -0.253492     -0.467003
Pb       3.94909      7.83514     12.42493        -0.089841      0.211012     -0.149960
Pb      15.40615      7.73274     12.51709         0.599243      0.127462     -0.687173
Pb       3.84267     11.69612      4.06741         0.308873     -0.011339      0.094222
Pb       3.92044     11.64873     16.55121         0.088262      0.283560      0.211985
Pb      15.55943     11.73880      4.11811         0.351542      0.135568     -0.058939
Pb      15.55419     11.78954      0.00330        -0.163866     -0.304727     -0.510712
Pb       3.84774     11.88829      8.30630         0.025211     -0.601989      0.201710
Pb       0.01147     11.64233      8.11914         0.065184      0.409993      0.255044
Pb       3.91354     11.65507     12.27093         0.263868     -0.050593      0.644911
Pb       0.06935     11.58419     12.41707         0.210037      0.215876      0.334219
Pb       7.76922      3.67630      4.14673         0.403815      0.322732     -0.759007
Pb       7.82533      3.90855     16.54133        -0.088260      0.091411      0.381901
Pb       7.79564     15.48548      4.14826        -0.110185      0.234294      0.176658
Pb       7.82376      0.10867     16.57033        -0.351239     -0.633154      0.561109
Pb       7.69033      3.79920      8.53923        -0.072079      0.322835     -0.646273
Pb       7.83534     15.59284      8.29737        -0.145361      0.150221     -0.369760
Pb       7.78110      3.64149     12.48032         0.372959      0.462413      1.278468
Pb       7.81505     15.55950     12.49807        -0.132890     -0.287474     -0.271308
Pb       7.91829      7.81367      4.11749        -1.017113      0.306042     -0.386473
Pb       7.68754      7.80865     16.54865        -0.280333     -0.330257      0.467035
Pb       7.90664      7.86211      8.18723        -0.992835     -0.268606      0.214315
Pb       7.90705      7.60946     12.38735        -0.948646      0.696965      0.994540
Pb       7.86833     11.69255      4.07276        -0.543382     -0.581080      0.529516
Pb       7.77253     11.77852     16.48338        -0.200663      0.118953      0.382702
Pb       7.73179     11.71309      8.22163         0.009127     -0.207849      0.017240
Pb       7.82968     11.56652     12.39305        -0.098418      0.221400      0.337969
Pb      11.76599      3.79708      4.30269         0.230556     -0.029096     -0.692608
Pb      11.72552      4.10453      0.25588        -0.377023     -0.672662     -0.162163
Pb      11.43292     15.56491      4.15692         0.864673      0.003189     -0.026789
Pb      11.65550     15.59425     16.49741         0.308294      0.019838      0.790303
Pb      11.65473      4.12506      8.42493        -0.101836     -0.394000     -0.161899
Pb      11.60046      0.10985      8.36165         0.148002     -0.156043     -0.227440
Pb      11.82800      3.74579     12.48111        -0.407639      0.311116     -0.270187
Pb      11.55490     15.49995     12.35700         0.383798      0.351306      0.323132
Pb      11.65491      7.64921      4.03448         0.235597      0.221791      0.476422
Pb      11.68570      7.84302      0.01998         0.115739     -0.039006      0.459823
Pb      11.65815      7.81508      8.28823         0.043355     -0.011542     -0.363766
Pb      11.46552      7.97861     12.49926         0.633375     -0.315747      0.361511
Pb      11.82329     11.40766      4.23813        -0.210830      0.558595     -0.188553
Pb      11.81318     11.66480     16.59003        -0.250008     -0.076105      0.135084
Pb      11.77528     11.88462      8.42727         0.119725     -0.375051     -0.724298
Pb      11.75680     11.75939     12.39874        -0.076758     -0.431469      0.279094
Ti       1.90624      1.97226      2.17584        -0.305596     -0.716456     -0.908545
Ti       1.97009      1.96763     14.61775        -0.446798     -0.152879      1.672363
Ti       1.89151     13.64915      2.15300        -0.366382      1.323473      0.993681
Ti       1.90782     13.58878     14.67926        -0.009847      0.153256     -1.517145
Ti      13.58521      1.86620      2.21786        -0.058101      0.217059      0.176059
Ti      13.68829      1.94815     14.63578         0.060416     -0.379336      0.194410
Ti      13.51156     13.57948      2.25223         0.419334      0.679208      0.810976
Ti      13.60837     13.61953     14.57378         0.970398      0.313867     -0.839801
Ti       1.86425      1.95114      6.35071         0.526545      0.143676      0.515728
Ti       1.93412     13.68751      6.24412        -0.582058     -0.576092      0.300323
Ti      13.62596      1.89533      6.55563        -0.741821      0.146594     -1.422956
Ti      13.55443     13.60412      6.36031         0.445444      0.623663     -0.761561
Ti       1.92428      1.95918     10.54492        -0.115767      0.044112      0.624792
Ti       1.88687     13.57839     10.46038         0.570684      0.732080      0.966798
Ti      13.66323      1.88855     10.56213         0.221214      0.583443      0.116840
Ti      13.72736     13.69828     10.55756         0.176775     -1.090997     -0.867307
Ti       1.96552      5.78140      2.26573         0.361135      0.136217     -0.965313
Ti       1.83856      5.93154     14.70553         0.322715     -0.926275      0.113839
Ti      13.71617      5.75274      2.23914        -0.481261      0.407044      0.758673
Ti      13.58140      5.79785     14.71458         0.279310     -0.355399     -0.418008
Ti       1.84665      5.90645      6.36163         0.126193     -0.046106      0.223150
Ti      13.58197      5.81890      6.43828         0.060617      0.722567     -1.297960
Ti       1.97682      5.87047     10.57385        -0.718932      0.296756     -0.771683
Ti      13.55549      5.84202     10.62443         0.848471     -0.322436      0.039361
Ti       1.94254      9.82538      2.08430         0.192383     -0.852832      0.011965
Ti       1.96719      9.78419     14.64313        -0.412506     -0.094942      0.180691
Ti      13.67468      9.62334      2.27676        -0.184831      0.321318     -1.085719
Ti      13.65134      9.64638     14.68507        -0.209920      0.911343     -0.181599
Ti       2.01618      9.73060      6.32158        -0.957238     -0.149403     -0.280942
Ti      13.72810      9.64593      6.37714        -0.887024     -0.340864     -0.034553
Ti       2.02755      9.72224     10.46907        -0.156229     -1.155525      0.055986
Ti      13.68261      9.77728     10.52742         0.503882     -0.312074      0.345581
Ti       5.79394      1.95961      2.11803         0.725605      0.117417     -0.201682
Ti       5.90818      1.90253     14.74957        -1.283426      0.624322     -0.627981
Ti       5.76674     13.71744      2.19864         0.635636     -0.701196     -0.788457
Ti       5.83601     13.62227     14.66743        -0.193633      0.388633     -0.490673
Ti       5.91060      1.98535      6.31270         0.278200     -0.937270     -0.108807
Ti       5.78655     13.56969      6.27348         0.583808      1.455988     -1.144105
Ti       5.75789      1.85498     10.70203         0.147287     -0.259581     -0.190827
Ti       5.83706     13.62856     10.51627         0.199225     -0.296077     -0.516726
Ti       5.83547      5.85660      2.21229         0.182834      0.802887      0.615089
Ti       5.78852      5.89966     14.61397         1.040653     -1.065304      0.448389
Ti       5.75995      5.82706      6.34326        -0.084682      0.727793     -0.218090
Ti       5.89395      5.63887     10.68265        -0.960319      1.183976     -0.289939
Ti       5.83210      9.84083      2.18040         0.097187     -1.067982     -0.006441
Ti       5.73592      9.78795     14.68596         1.263316     -0.421173     -1.562003
Ti       5.73786      9.76921      6.36281         1.170712     -1.523586     -0.974714
Ti       6.00805      9.64034     10.56396        -1.627956     -0.024550     -0.669001
Ti       9.72368      1.86864      2.11957        -0.062109      1.174893      0.526966
Ti       9.88938      1.96854     14.71507        -0.702526     -0.004340      0.175108
Ti       9.68010     13.53747      2.21523         0.383148      1.126620     -1.068024
Ti       9.78346     13.58723     14.66701        -0.816187     -0.081503      0.025574
Ti       9.78103      2.05816      6.38646        -0.599194     -1.189088      0.120064
Ti       9.72728     13.65870      6.35790        -0.319663      0.200248      0.105824
Ti       9.77804      1.90942     10.56267        -0.196204      0.227909      0.667944
Ti       9.76705     13.58548     10.42208        -1.160199      0.986446      0.156205
Ti       9.70921      5.77258      2.22475        -0.407493     -0.606266      0.190942
Ti       9.75923      5.83038     14.78488        -0.483138     -0.694966      0.016421
Ti       9.57397      5.81333      6.25367         0.377220      0.165286      0.621285
Ti       9.72948      5.76081     10.68926         0.764135     -0.713223     -0.489981
Ti       9.78706      9.77347      2.18423        -0.492338     -0.666417      0.214586
Ti       9.68300      9.66313     14.86619        -0.015369      0.865939     -2.059744
Ti       9.75510      9.75160      6.33299         0.471852      0.576381     -0.232994
Ti       9.81219      9.77357     10.44944        -0.502405     -0.001713      0.257101
O       1.83351      1.95752      0.32982         0.076775     -0.191093      1.178798
O       1.97086      1.93177     12.87276         0.004635      0.100893     -1.493135
O       1.71788     13.70977      0.38091         0.146878     -0.373761     -0.235612
O       1.91232     13.55937     12.81161         0.274192      0.275157      1.022130
O      13.61329      2.07039      0.44936         0.241122     -0.559697     -0.215032
O      13.49678      1.95407     12.87417         0.365957     -0.394676     -0.081142
O      13.62118     13.67817      0.49263         0.156027     -0.579205     -0.475834
O      13.58001     13.56966     12.72782        -0.273689      0.298307      1.593992
O       1.80959      1.89485      4.61851         0.186886      0.271618     -0.387368
O       1.90561     13.52992      4.50338         0.358278      0.642180     -0.425537
O      13.61533      1.98781      4.74416        -0.084023      0.151506      0.159296
O      13.43947     13.68596      4.56192         0.595673     -0.406717      0.866706
O       1.92709      1.87053      8.78774         0.056417      0.165486     -0.546801
O       2.01145     13.49875      8.68514        -0.271974      0.410318     -0.247537
O      13.58137      1.85812      8.78088         0.503393      0.174637     -0.378478
O      13.76627     13.47637      8.72150        -0.421290      0.098327      0.130144
O       1.97850      5.84016      0.43980        -0.011031     -0.109165      0.364261
O       1.85885      5.75271     12.92191         0.111917      0.210271      0.244557
O      13.60769      5.83376      0.44272        -0.131652     -0.171519     -0.418108
O      13.79461      5.80147     12.92378        -0.597425      0.047245     -0.304646
O       1.74218      5.77358      4.55743         0.370018      0.142438     -0.075910
O      13.61308      5.78996      4.61966        -0.014500      0.070157      0.091971
O       2.01161      6.03760      8.75871         0.166251     -0.536269      0.357594
O      13.56364      5.85684      8.82421        -0.029260      0.214284     -0.248194
O       2.05779      9.72934      0.30044        -0.385028      0.405362      0.841806
O       2.02189      9.75432     12.88164        -0.335367      0.100446     -0.067432
O      13.55745      9.61787      0.46911         0.316538      0.163744     -0.254799
O      13.56045      9.67398     12.90558         0.326181      0.196016      0.353764
O       1.75588      9.72036      4.48398         0.449389      0.175571      0.823676
O      13.75371      9.55552      4.54562        -0.302576      0.721369      0.066899
O       2.10933      9.72411      8.66998        -0.341095     -0.216944      0.245191
O      13.53139      9.62704      8.73593         0.428521      0.643146      0.512623
O       5.70720      1.86319      0.33730        -0.033679      0.420184      0.295455
O       5.93931      1.78392     12.97203        -0.353302      0.034271     -0.870330
O       5.88723     13.64160      0.39707         0.050507      0.012751      0.091021
O       5.75507     13.71349     12.87568        -0.158115     -0.111646     -0.036748
O       5.93911      2.04480      4.50349        -0.264773     -0.024469      0.217000
O       5.68714     13.66019      4.44915         0.340655     -0.515562      0.893158
O       6.07393      2.02022      8.93634        -0.499458     -0.231619     -0.852497
O       5.79830     13.71615      8.68317        -0.051495     -0.239412     -0.337447
O       5.61847      5.95761      0.46658         0.358249     -0.503329     -0.975380
O       6.04634      5.93184     12.87962        -0.890984     -0.327601     -0.420940
O       5.66666      5.71237      4.53597         0.677614      0.024556      0.502156
O       5.75300      5.59419      8.89234         0.380805     -0.114976      0.444377
O       5.81556      9.79295      0.36884         0.002872     -0.122194     -0.230444
O       5.87819      9.80298     12.85682         0.143918      0.029417      0.403165
O       5.71646      9.80809      4.59027         0.199968     -0.101313     -0.139228
O       5.95687      9.62434      8.78660        -0.077631      0.177193     -0.749657
O       9.84537      2.01987      0.37548        -0.213120     -0.351434     -0.605550
O       9.85221      1.70524     12.92210         0.003885      0.429990      0.519622
O       9.63009     13.63660      0.40026         0.115239     -0.186277      0.509102
O       9.76206     13.66930     12.85808         0.438761      0.050228      0.457751
O       9.61429      1.91568      4.60072         0.474160      0.128345     -0.213908
O       9.71629     13.82864      4.55725         0.293939     -0.584841      0.116495
O       9.74102      2.00959      8.81034        -0.434988     -0.130997     -1.036563
O       9.69632     13.67640      8.64159        -0.115080     -0.447134     -0.059843
O       9.91052      5.76179      0.45303        -0.363119      0.188343     -0.681652
O       9.85408      5.98731     13.03104        -0.476393     -0.264848     -0.772044
O       9.51752      5.96458      4.48358         0.400622     -0.427906      0.231968
O       9.74649      5.69834      8.93888        -0.222027      0.151961     -0.661165
O       9.78875      9.72017      0.39323        -0.344067      0.275719     -0.741951
O       9.77846      9.82155     12.93479        -0.014517     -0.587400      1.147152
O       9.81015      9.95299      4.50283        -0.227913     -1.005239      0.838580
O       9.85522      9.79115      8.66993        -0.425324     -0.239096      0.491051
O       3.80899      1.77947      2.48730         0.987587      0.672107     -0.141289
O       3.80534      1.85269     14.89946         1.030578      0.098511      0.300084
O       3.90366     13.72903      2.36651        -1.123408      0.241958      0.201380
O       3.84262     13.55965     15.05147         0.205611      0.855893     -0.172516
O      15.56491      2.11488      2.54292        -0.842595     -0.820321     -0.213740
O       0.01716      1.90211     14.88580        -1.222957     -0.038446      0.275801
O      15.56442     13.70162      2.66982        -0.208999     -0.989096     -0.576882
O      15.59536     13.40252     14.80714        -0.773248      0.579127      0.567113
O       3.98526      1.86700      6.58126        -0.758307      0.527868      0.380495
O       3.88135     13.60832      6.57942         0.023818     -0.105445      0.334675
O      15.57174      2.03626      6.83773        -0.074899     -0.889859     -0.434895
O       0.00620     13.69660      6.59397        -0.553869     -0.276968      0.057909
O       3.86554      1.98722     10.83232         0.187450     -0.331762      0.193732
O       3.83327     13.57631     10.83328        -0.009859      0.206799     -0.340163
O      15.55142      1.93725     11.01328         0.517075     -0.225846     -0.559549
O      15.59996     13.70801     10.84720         0.916956     -0.478433     -0.186362
O       3.88422      5.73733      2.53339        -1.335782      0.040951      0.338031
O       3.88238      5.89896     14.95354        -0.764673     -0.218934     -0.245029
O      15.56435      5.73062      2.38846         0.252042      0.154891      0.344188
O      15.53764      5.72710     14.97380         0.807801      0.964078      0.589502
O       3.85443      5.80472      6.68178        -0.155637     -0.821462      0.071753
O      15.55637      5.97466      6.83518         0.377712     -0.434324     -0.132927
O       3.89990      5.97335     11.00397         0.908285     -1.234669     -0.093538
O       0.04359      5.78922     10.77517        -0.891496      0.694084      0.476224
O       3.84975      9.78599      2.51295        -0.673720      0.109188     -0.067452
O       3.90623      9.80549     14.81634        -0.222240     -0.500773      0.637543
O      15.59427      9.83079      2.34387         0.343430     -0.370196      0.238864
O      15.55742      9.77751     15.01799         0.076936     -0.057290     -0.103005
O       3.87859      9.79422      6.54688        -0.498923      0.042443      0.399834
O      15.57216      9.62738      6.77524         0.416918      0.135650     -0.249241
O       4.01081      9.76529     10.84757        -1.059147     -0.571881     -0.227906
O       0.01868      9.67685     10.93672        -0.373003     -0.448522     -0.668335
O       7.78330      2.05577      2.27633        -0.773924     -0.273466      0.524827
O       7.72606      1.99157     15.03853         1.127336      0.062647      0.106946
O       7.77342     13.49243      2.57557         0.157898      0.521447     -0.194977
O       7.72375     13.58433     14.79908         0.974249      0.133175      0.634170
O       7.87430      1.76981      6.61044        -1.366018      0.772360      0.590497
O       7.80631     13.70898      6.42701        -0.517696     -0.232784      0.894563
O       7.86974      1.88658     11.03929        -0.278439     -0.331996     -0.686937
O       7.73655     13.66228     10.77214         0.927368     -0.015850      0.131506
O       7.79792      5.86713      2.33975        -0.875469      0.203765      0.399932
O       7.72964      5.80200     15.13275         0.543123      0.190584     -0.060104
O       7.69433      5.84480      6.71904         0.848804      0.166540     -0.175992
O       7.84625      5.55808     11.05845        -0.073974      0.721222     -0.833201
O       7.73414      9.78934      2.57153         0.289967      0.069878     -0.289597
O       7.76338      9.79150     14.90386         0.856388     -0.161538      0.721579
O       7.77742      9.65530      6.56712         0.598076     -0.326797      0.423604
O       7.82925      9.80544     10.77637         1.766659      0.187316      0.206225
O      11.61207      1.87635      2.53494         1.024243      0.078130      0.252946
O      11.70975      1.86910     14.97403         0.481862      0.123476     -0.046421
O      11.65478     13.64151      2.59299        -0.458279      0.184424     -0.495512
O      11.67140     13.70658     15.02542        -0.062483      0.001725     -0.504382
O      11.66646      2.08238      6.77708         0.342266     -0.246215     -0.073216
O      11.66035     13.65041      6.74057         0.229260     -0.612846      0.056680
O      11.69510      2.01074     10.78661         0.746900     -1.042397      0.483806
O      11.69154     13.55293     10.64962         0.209112     -0.110258      0.251233
O      11.55966      5.84773      2.58728         1.426168      0.149792      0.085242
O      11.70214      5.81821     15.02341         0.320201     -0.078185      0.074490
O      11.65095      5.84803      6.68786        -0.563577     -0.269649      0.023223
O      11.68446      5.78203     10.90037         0.043194      0.054630      0.226465
O      11.68641      9.58509      2.41681         0.188536      0.682180      0.693174
O      11.68873      9.64436     15.04603        -0.187715      0.108160     -0.006858
O      11.69098      9.68800      6.65554        -0.262631      0.201120     -0.370608
O      11.72961      9.71470     10.93078        -0.675738      0.712125     -0.779961
O       1.89037      3.81806      2.54511         0.476284      0.955298      0.001080
O       1.90376      3.85863     14.97050         0.364687      0.647945     -0.097884
O       1.75095      0.02783      2.50842         0.433372     -0.351536     -0.007758
O       1.84314     15.56997     14.87863         0.173760     -0.737958      0.212517
O      13.48789      3.89821      2.54919        -0.071905     -0.202348      0.098002
O      13.76234      3.84487     14.84468        -0.706697     -0.033034      0.497107
O      13.68225     15.59789      2.52907        -0.189313      0.448179     -0.202459
O      13.69877     15.51323     15.04388        -0.071545      0.318862     -0.466689
O       1.85914      3.89725      6.72418         0.332624     -0.335941     -0.036823
O       1.91347     15.58710      6.64202         0.228069      0.324469      0.178986
O      13.63945      4.00282      6.74691         0.173192     -1.550841      0.487669
O      13.51956     15.57248      6.71652         0.556560      0.383568      0.242119
O       1.93383      3.92755     10.79901         0.436153     -0.632681      0.262632
O       1.91193     15.56309     10.78278         0.096561      0.041024      0.277023
O      13.68308      3.84508     10.78600        -0.363622      0.421589      0.529261
O      13.72669     15.50227     10.77510        -0.619964      1.357160      0.169382
O       1.94113      7.79675      2.47795        -0.377426     -0.043435     -0.174146
O       1.98168      7.79416     15.00854        -0.715737      0.078195     -0.280390
O      13.63775      7.73120      2.56454         0.279488     -0.248489     -0.201374
O      13.66180      7.75199     14.95265         0.186481      0.030185      0.221399
O       2.02285      7.77099      6.51205         0.047529      0.670984      0.165252
O      13.59672      7.75985      6.75702        -0.021367      0.425318      0.233298
O       1.98353      7.79047     10.91689         0.030610      0.539644     -0.023215
O      13.57959      7.79255     10.89716         0.519058     -0.237403     -0.068164
O       1.97580     11.77767      2.50382        -0.396250     -0.817160     -0.618500
O       2.03823     11.67892     14.95208        -0.543926     -0.271440      0.422870
O      13.59177     11.63420      2.50858        -0.041548      0.087792      0.216630
O      13.53161     11.75269     14.98579        -0.058410     -0.887886      0.141956
O       1.89685     11.67807      6.51633        -0.059707     -0.174132      0.481763
O      13.65375     11.63051      6.59429        -0.036158      0.296744      0.008915
O       1.86825     11.57963     10.67104         0.152874      1.229656      0.550573
O      13.90303     11.66904     10.93627        -1.626084     -0.644473     -0.843741
O       5.79729      3.90386      2.45563        -0.236533     -0.993731      0.047387
O       5.67534      3.94881     14.88192         0.286287     -0.852470      0.430911
O       5.96181      0.00970      2.53019        -0.445945      0.240210     -0.126750
O       5.83134      0.02031     14.99803        -0.189480     -1.196278      0.178086
O       5.89962      3.85653      6.71742        -0.114159     -0.568828     -0.110216
O       5.81429     15.54526      6.45966        -0.022704      0.275965      0.797504
O       5.88866      3.74928     11.11838        -0.387780      1.110453     -0.349514
O       5.82156     15.56419     10.78466        -0.285638      0.231870      0.543635
O       5.64449      7.78984      2.49431         0.671692      0.162299      0.157737
O       5.90032      7.74622     14.93565        -0.422020      1.638659      0.405921
O       5.69664      7.70283      6.66361         0.529303      0.532052      0.130418
O       6.01688      7.71192     10.83503        -0.021023     -0.124486      0.110090
O       5.74000     11.66717      2.42985        -0.001677      0.951431      0.305416
O       5.77708     11.69996     14.93305         0.244758      0.033932      0.298494
O       5.93456     11.61721      6.65522        -0.321923      1.552111      0.215587
O       5.85035     11.71312     10.64289         0.114331     -0.080853      0.729420
O       9.76185      3.85803      2.43961        -0.086599      0.401304      0.528015
O       9.70129      3.90298     15.06435         0.326565     -0.539085     -0.443766
O       9.63382     15.60527      2.52997         0.006030     -0.616220     -0.364277
O       9.64549      0.06933     15.21154         0.556960     -0.785764     -1.306950
O       9.68341      3.92509      6.55509        -0.117069      0.355340      0.235757
O       9.82677      0.04026      6.82521         0.028868     -0.508628     -0.539348
O       9.84368      3.77322     10.94620        -0.420773      1.028588      0.401145
O       9.80568     15.54134     10.79501        -0.016622     -0.189779     -0.165143
O       9.65332      7.92028      2.56733         0.109534     -0.974617     -0.134202
O       9.67524      7.69753     15.17639         0.144614      1.620255     -0.435535
O       9.78242      7.69653      6.72183        -0.496636      0.727806     -0.360804
O       9.63869      7.79766     10.82516         0.644412      0.131327     -0.279463
O       9.80362     11.68123      2.47407        -0.066856      0.114386      0.201874
O       9.78622     11.71967     14.95424         0.006250     -0.147115      0.303044
O       9.64477     11.66289      6.59902         0.335310      0.576810      0.192513
O       9.76615     11.73350     10.74116        -0.041651     -1.111633      0.134107
