  # total energy = -7880.72876887 
CRSYTAL
PRIMVEC
    15.6080000000000005    0.0000000000000000    0.0000000000000000
     0.0000000000000000   15.6080000000000005    0.0000000000000000
     0.0000000000000000    0.0000000000000000   16.6239999999999988
PRESSURE
-0.264915 -0.338754 0.534351 -0.086629 -0.197801 -0.051247
PRIMCOORD
320 1
Pb       4.03279      4.02439      4.24575        -0.591446     -0.279710     -0.346923
Pb       3.96319      4.00779     16.49096        -0.059563     -0.502280      0.671802
Pb       3.92445      0.11910      4.02809        -0.156737     -0.916619      0.001674
Pb       3.83354      0.03275     16.43550         0.142171     -0.417971      1.042867
Pb       0.09948      3.84921      4.18453        -0.055340      0.089632     -0.518575
Pb      15.58923      3.75971     16.60849        -0.100301      0.434883      0.289158
Pb      15.44340      0.03034      4.09534         0.346833     -0.278533      0.397658
Pb      15.51952      0.03622     16.57454         0.501639     -0.101371      0.060281
Pb       3.80159      3.80574      8.23913         0.417835      0.647666     -0.036157
Pb       3.94820     15.54765      8.08723        -0.978065      0.276117      1.242858
Pb      15.53433      3.88591      8.35623        -0.055950     -0.055188     -0.575866
Pb      15.60498     15.54918      8.23592        -0.059885      0.072290      0.140122
Pb       3.73176      3.89315     12.61644         0.495466      0.213044     -0.304480
Pb       3.89219     15.50761     12.54504        -0.117753      0.380684     -0.205413
Pb       0.00210      3.99168     12.62407        -0.041308     -0.321210     -0.174532
Pb       0.17696     15.55416     12.45801        -0.473865      0.153160      0.157689
Pb       3.82544      7.89183      4.02945         0.189980     -0.230088      0.441514
Pb       3.97478      7.69577     16.58772        -0.230542      0.619179     -0.224540
Pb       0.10168      7.84241      4.17206        -0.757197     -0.366063     -0.436675
Pb      15.50335      7.73853     16.59211         0.342638      0.325321      0.198798
Pb       3.82352      7.72660      8.32697        -0.194722      0.583515     -0.230586
Pb      15.34832      7.68311      8.51619         0.282043      0.498153     -0.463892
Pb       3.98659      7.81694     12.35027        -0.088518     -0.378068      0.634492
Pb      15.42472      7.75852     12.51766         0.655803      0.272123      0.355832
Pb       3.80760     11.68498      4.03743         0.527285      0.566857     -0.157845
Pb       3.94695     11.64012     16.58051        -0.263048     -0.017163      0.223778
Pb      15.56598     11.67676      4.11458        -0.120415      0.431510     -0.109869
Pb      15.50650     11.75074     16.56081         0.671577      0.184015      0.310379
Pb       3.85278     11.87786      8.27583         0.216767     -0.595535     -0.540884
Pb       0.11401     11.64012      8.12211        -0.796421      0.166366      0.878743
Pb       3.98543     11.56719     12.22805        -0.457146      0.108646      0.859728
Pb       0.12249     11.63044     12.42406         0.414975      0.134022      0.093903
Pb       7.80982      3.66921      4.13114        -0.039573      1.149188      0.366846
Pb       7.93918      3.98266     16.55655        -0.649052     -0.259737      0.345598
Pb       7.83637     15.47573      4.15332        -0.436174      0.188355     -0.588395
Pb       7.84051      0.13824     16.54663        -0.664208     -0.157610      0.299716
Pb       7.63005      3.78929      8.52539         0.018177      0.064960     -0.769048
Pb       7.78242      0.03147      8.18880        -0.009787      0.228761      1.088674
Pb       7.79452      3.57041     12.53023        -0.306640      0.723541      0.025743
Pb       7.74703     15.46851     12.46126         0.000020      0.271044     -0.440675
Pb       7.96655      7.84145      4.18225        -0.647472     -0.234688     -0.094425
Pb       7.64226      7.78176     16.58826         0.332688      0.062301      0.149939
Pb       7.81255      7.83583      8.14272        -0.070507     -0.151079      0.240882
Pb       7.83457      7.63629     12.38630        -0.028021      0.212440     -0.321604
Pb       7.87937     11.59885      4.13300        -0.368861      0.256732     -0.584424
Pb       7.76899     11.86429     16.50443        -0.438280     -0.685104      0.858274
Pb       7.76329     11.69992      8.15918        -0.466155     -0.375652      0.645264
Pb       7.84161     11.57707     12.34842        -0.059262      0.303469     -0.176919
Pb      11.77049      3.69777      4.26366        -0.676249      0.483463     -0.392294
Pb      11.69808      4.10593      0.31620         0.127539     -0.135179     -1.095962
Pb      11.38844     15.46683      4.12422         0.651871      0.248381     -0.065226
Pb      11.69639     15.58323     16.50256         0.109697      0.069095      0.491080
Pb      11.66347      4.15285      8.43188        -0.055986     -0.688896     -0.700618
Pb      11.70513      0.21108      8.41294         0.206401     -0.418842     -0.180968
Pb      11.83730      3.75847     12.50554        -0.486575      0.359042      0.086043
Pb      11.53610     15.53192     12.36704         0.833726     -0.293114      0.201547
Pb      11.59144      7.70110      4.12426         0.533280      0.079366      0.077040
Pb      11.70500      7.87535      0.03557        -0.165383     -0.600147     -0.194515
Pb      11.64796      7.80674      8.35391         0.197963      0.030484     -0.260636
Pb      11.47579      8.02586     12.50475         0.382632     -0.612408     -0.341576
Pb      11.86701     11.32477      4.16946        -0.914450      1.018404      0.647943
Pb      11.71750     11.62834     16.59950         0.043794      0.503375      0.536791
Pb      11.79516     11.91078      8.41294         0.289790     -0.522744      0.047500
Pb      11.83413     11.78181     12.44858        -0.797562      0.252326     -0.086914
Ti       1.91529      1.87142      2.29252         0.554381      0.791949     -1.553668
Ti       1.89188      1.94885     14.80727         0.422042     -0.194667      0.271447
Ti       1.80476     13.63719      2.20968         1.565853     -0.093164     -0.296402
Ti       1.95423     13.55287     14.63734         0.328778      1.327610     -0.261450
Ti      13.62912      1.89570      2.21130        -0.107406      0.069363     -0.252040
Ti      13.53155      1.98390     14.67397         1.454199      0.451850      0.429784
Ti      13.53531     13.59301      2.25461         0.011322      0.142241      0.252022
Ti      13.60712     13.72412     14.60054        -0.283236      0.103136     -0.994085
Ti       1.86625      2.01601      6.44746        -0.321779     -0.345338     -0.877716
Ti       1.82993     13.71603      6.23746         0.576257      0.383571      0.488348
Ti      13.56488      1.93975      6.35683         0.604064     -0.203035      0.058142
Ti      13.60555     13.63726      6.31082        -0.019557      0.005571     -0.366174
Ti       1.92894      2.02218     10.53605         0.649978     -0.388233      0.884115
Ti       1.99631     13.72542     10.51092        -0.131172     -0.270686      0.205311
Ti      13.73283      1.87694     10.57886        -0.254969     -0.548137      0.210042
Ti      13.71457     13.58889     10.48890        -0.525110      1.010124      1.286301
Ti       1.88870      5.82913      2.11592         0.484434     -0.924070      0.298486
Ti       1.87020      5.90421     14.74747         0.627166     -0.278892     -0.314156
Ti      13.65207      5.82671      2.22202         0.553531     -0.142572      0.147108
Ti      13.57426      5.93533     14.73329        -0.175513     -1.162685      0.320270
Ti       1.83976      5.98936      6.26941         0.787261     -0.523817      2.380515
Ti      13.60449      5.79520      6.27122        -0.018734      0.203391      0.865150
Ti       1.86259      5.93943     10.63380         1.473142     -0.468979     -0.039174
Ti      13.61584      5.82855     10.60202        -0.650082     -0.008796      0.244922
Ti       1.86632      9.72551      2.15705         0.881076      0.913978     -0.497824
Ti       1.88649      9.73935     14.72340         0.740350      0.056315     -0.236355
Ti      13.73577      9.66290      2.17684        -1.158408      0.071735      0.213006
Ti      13.61453      9.84375     14.67141         0.809662     -1.506548     -0.468089
Ti       1.83804      9.77148      6.27239         1.434843     -0.531413      0.897816
Ti      13.57677      9.68480      6.50626         0.592069      0.467184     -0.217409
Ti       1.91363      9.67077     10.51954         0.450873      0.217967     -0.257702
Ti      13.66286      9.75822     10.69805        -0.565243     -0.105114     -2.422585
Ti       5.83406      1.97191      2.19424        -0.302771      0.281178     -0.984030
Ti       5.81814      1.97644     14.68688        -0.328692      0.091299     -0.361064
Ti       5.83062     13.66709      2.10513        -1.296519     -0.033719      0.535951
Ti       5.83743     13.66426     14.56055        -0.558775     -0.014473      1.507353
Ti       5.88284      1.88054      6.29713        -0.365704      1.820799     -0.299355
Ti       5.84231     13.66719      6.28669        -0.609698     -1.211383     -0.373054
Ti       5.72246      1.85906     10.58682         0.242891      0.316063     -0.031798
Ti       5.80924     13.61244     10.47098         0.488375     -0.249628      0.935079
Ti       5.82758      5.89070      2.33101         0.402658     -1.089720     -0.805291
Ti       5.85226      5.88341     14.67246        -0.673881     -0.720015     -0.042321
Ti       5.79907      5.88802      6.36837         0.190219     -1.289350     -0.263805
Ti       5.82638      5.72091     10.59584        -0.326876     -0.389586      0.425843
Ti       5.82762      9.72338      2.25055         0.217018      0.659945      0.547839
Ti       5.93555      9.78074     14.58987        -1.593243     -0.229005      1.550465
Ti       5.82493      9.71303      6.30529        -1.222834      0.503676      0.773717
Ti       5.95511      9.64868     10.41062        -0.826570     -0.117268      0.026866
Ti       9.78142      2.00438      2.19768        -0.627440     -0.157667     -0.398854
Ti       9.77399      1.91598     14.74839        -0.383658      1.316470     -0.403102
Ti       9.66203     13.66064      2.05710         0.360911     -0.338807      0.737476
Ti       9.73113     13.63219     14.68613         0.283868      0.111250     -0.602069
Ti       9.74223      1.91660      6.44612        -0.042402      1.177155     -0.799540
Ti       9.71699     13.62278      6.47104         1.004743      0.216895      0.280485
Ti       9.74818      1.91864     10.53894        -0.556363     -0.346274      1.191669
Ti       9.70864     13.61170     10.47223         0.580401      0.173584      0.282919
Ti       9.73121      5.83830      2.27424        -0.766120     -1.587721      0.441790
Ti       9.72365      5.90706     14.67553         0.187257     -0.825472      0.966061
Ti       9.67364      5.78228      6.31873        -0.153017     -0.701600     -0.217443
Ti       9.78538      5.69612     10.60955        -0.665799      0.581432      0.051491
Ti       9.74986      9.76264      2.13525        -0.445572      0.177427      1.991683
Ti       9.75838      9.78772     14.70116        -0.491029     -1.277206     -0.562232
Ti       9.80762      9.81992      6.34431        -0.325049     -0.961567     -0.022706
Ti       9.76578      9.79899     10.36814        -0.130864     -0.228581      1.708787
O       1.89030      1.82749      0.46040        -0.138360      0.214494      0.721479
O       1.95793      1.93317     13.05211        -0.230226     -0.246435     -1.471136
O       1.96501     13.48568      0.45542        -0.317681      0.578372     -0.434912
O       2.03562     13.74083     12.80903        -0.606424     -0.557764      0.955816
O      13.69573      1.85558      0.42272        -0.452293     -0.007190      0.151033
O      13.71590      2.02598     12.91653        -0.110357      0.055007     -0.207813
O      13.54453     13.34757      0.49384        -0.030557      0.512926     -0.820336
O      13.43715     13.71337     12.80679         0.678955     -0.575785      0.959408
O       1.70218      2.06802      4.66130         0.355646     -0.235557      0.081268
O       1.85575     13.74729      4.50015        -0.336836     -0.505272     -0.418647
O      13.58422      2.11474      4.52526         0.265390     -0.822541      0.876224
O      13.72516     13.61598      4.49863        -0.455633     -0.147169      0.581043
O       1.81589      2.03845      8.79363         0.234544     -0.155472     -0.834942
O       1.93469     13.70436      8.73096        -0.020315     -0.317587      0.141620
O      13.68404      1.87164      8.76979        -0.382915      0.114590      0.597941
O      13.60702     13.67676      8.74093         0.167190     -0.080232     -0.590038
O       2.01957      5.73844      0.31200        -0.158192      0.515842      0.721987
O       1.83274      5.73657     12.94042        -0.191850      0.190848      0.255735
O      13.61212      5.83215      0.41631        -0.031447      0.410632      0.026504
O      13.61999      5.83162     12.94060         0.454770     -0.013289      0.308911
O       1.82450      6.03869      4.55597         0.000700     -0.440415     -0.883956
O      13.60651      5.89904      4.51932         0.087391     -0.186638     -0.072515
O       1.99051      6.11189      8.87161        -0.649358     -0.414534     -0.121564
O      13.52021      5.82691      8.77121         0.280128     -0.139506      0.746428
O       1.81834      9.82050      0.38131        -0.041711     -0.095210      0.470316
O       1.74762      9.82845     12.92826         0.479601      0.025012      0.235804
O      13.69831      9.73398      0.37718        -0.441806      0.119743      0.155620
O      13.63178      9.83366     12.83314        -0.153630     -0.462433      0.064018
O       1.91979      9.77885      4.47291        -0.228537     -0.253833      0.618117
O      13.49786      9.72727      4.68061         0.650648     -0.462261      0.345435
O       1.87726      9.57383      8.75102        -0.008983      0.363442      0.278193
O      13.56935      9.73078      8.81216         0.215341     -0.454902      0.218612
O       5.76338      2.01050      0.36624         0.290685     -0.297029      1.109944
O       5.83458      1.86869     12.84951         0.244996     -0.176552      0.805927
O       5.79949     13.70163      0.32145         0.283316     -0.205427      0.636642
O       5.83917     13.56716     12.81396         0.295341     -0.086726     -0.478037
O       5.85795      1.84688      4.46762         0.094687      0.124215      1.278755
O       5.92089     13.61932      4.49634         0.167864      0.462970      1.318359
O       5.87901      1.84674      8.76090        -0.158023      0.428248      0.539520
O       5.72468     13.55264      8.72988         0.296346      0.209814     -0.691374
O       5.72042      5.80141      0.48068         0.026649      0.583348      0.265772
O       5.71862      5.89052     12.94514         0.826719      0.202903     -1.243895
O       5.85752      5.81334      4.60753        -0.599632      0.121899     -0.360849
O       5.93110      5.54323      8.83432        -0.336502      0.502476     -0.554149
O       5.78949      9.61788      0.51556         0.070387      0.023983     -0.885728
O       5.82715      9.68991     12.85962         0.297460      0.129488     -0.052030
O       5.74597      9.79038      4.52278         0.358679     -0.164554      0.475110
O       6.05755      9.66325      8.66378        -0.082399      0.187831     -0.660112
O       9.73805      1.89329      0.39843         0.128190      0.263190     -0.567997
O       9.60014      1.94253     12.97248         0.298089     -0.354847     -0.044625
O       9.52545     13.60857      0.30746         0.812561      0.393761      0.082173
O       9.77526     13.57156     12.90297        -0.304163      0.074178      0.014336
O       9.84233      1.93795      4.62218        -0.346097     -0.124301      0.092785
O       9.71480     13.69846      4.72467        -0.340274      0.120148     -1.212202
O       9.65869      1.83631      8.80468         0.433653      0.322581     -1.460041
O       9.80793     13.54013      8.70492        -0.099345      0.335919     -0.554423
O       9.64381      5.77250      0.51674         0.565390     -0.022175     -1.163635
O       9.65458      5.81919     12.95198         0.327038      0.338650     -1.197279
O       9.80659      5.70286      4.52691        -0.207750      0.658893      0.677792
O       9.73056      5.68680      8.80115         0.326532      0.184109      0.154336
O       9.73070      9.70292      0.43675         0.225658     -0.331593     -1.587484
O       9.82759      9.67422     12.87744        -0.537902      0.579646      1.034630
O       9.76532      9.62540      4.53778        -0.001263      0.569239     -0.049402
O       9.59620      9.75711      8.62149         0.496425     -0.202185     -0.275035
O       3.82600      1.93521      2.56448         0.299374     -0.078979      0.077487
O       3.84875      1.91884     15.08317         0.594910      0.023821     -0.580557
O       3.86761     13.73818      2.53868         0.560792     -0.272608     -0.065887
O       3.88330     13.70560     14.79407        -0.148076     -0.572092      0.451615
O      15.56519      1.81118      2.51724        -0.758484      0.790514      0.156321
O       0.01556      1.97138     15.11866        -1.312312     -0.433773     -0.335392
O      15.55084     13.50544      2.37908        -0.614687      0.292177      0.466398
O      15.46501     13.57727     14.89957         0.201887     -0.314415      0.029508
O       3.78646      1.93723      6.69407         0.345752     -0.359896     -0.262375
O       3.84595     13.69693      6.64650         0.242258     -0.152805     -0.364806
O      15.49762      1.80824      6.76700         0.079786      0.833193     -0.215617
O      15.52789     13.67741      6.69814         0.361718     -0.132594     -0.151470
O       3.89822      1.77818     10.90586        -0.693449      0.525842     -0.321480
O       3.92869     13.53008     10.75041        -0.421669     -0.092860      0.277170
O       0.04405      1.82810     10.84121        -0.227656      0.455429      0.221021
O       0.04056     13.64633     10.90133        -0.466405     -0.099857     -0.441279
O       3.80718      5.89807      2.71195        -0.042422      0.203222     -0.623353
O       3.88308      5.81087     14.88090        -0.603562      0.277457      0.682143
O       0.00898      5.91574      2.51440         0.009412     -0.204803     -0.157301
O      15.59522      5.89872     15.14742        -0.403041     -0.691974     -0.750426
O       3.83798      5.72591      6.69153         0.042259      0.497146     -0.131466
O      15.53895      5.81596      6.63005         0.290662      0.525779      0.251394
O       3.87791      5.84676     10.93416         0.288624      0.657125     -0.148827
O      15.57721      5.91579     10.90612        -0.252022     -0.443778     -0.190067
O       3.89238      9.81853      2.51883        -0.825733     -0.652933     -0.227226
O       3.81479      9.70764     15.06592         0.364123      0.603069     -0.326323
O      15.55290      9.78887      2.56826         0.539170      0.231173     -0.062659
O      15.52776      9.76366     14.94067        -0.669455      0.389056      0.197779
O       3.95872      9.76432      6.79648        -0.811582      0.096143     -0.518265
O       0.00177      9.59868      6.71462        -0.072587      0.323206     -0.375340
O       3.94331      9.40726     10.66451        -0.619269      1.497765      0.109924
O      15.55227      9.76189     10.76657         0.319703      0.177215      0.473045
O       7.78599      2.13864      2.45130        -0.448221     -0.652926     -0.192085
O       7.70650      2.02066     15.03896         1.069953     -0.507453     -0.178460
O       7.80288     13.70393      2.54499        -0.132395     -0.245944     -0.180518
O       7.79720     13.64158     14.99020        -0.209200     -0.008545     -0.776107
O       7.77509      1.91986      6.63964        -0.255433     -0.537270      0.025737
O       7.77677     13.65505      6.85325        -0.141346      0.249503     -1.128659
O       7.79278      1.96601     10.79450        -0.349459     -0.185563      0.406475
O       7.82403     13.55249     10.81617        -0.582282      0.094500      0.019539
O       7.73476      5.71575      2.47220         0.350956      0.158568      0.435887
O       7.72131      5.80743     15.02776         0.817431      0.417179      0.037607
O       7.73503      5.82397      6.51605         0.921230      0.124648      0.741285
O       7.80705      5.66282     10.88431         0.177179      0.251729      0.127143
O       7.79404      9.71841      2.54810         0.435105     -0.124665      0.185608
O       7.74473      9.78785     15.08509         0.702701     -0.079628     -0.667535
O       7.74972      9.75583      6.56004         0.410254      0.022741     -0.150303
O       7.79182      9.72192     10.89859         1.720795      0.011096     -0.235287
O      11.64228      1.94280      2.54195         1.102442     -0.303784     -0.174738
O      11.70004      1.87354     14.93617        -0.512176     -0.169480      0.000580
O      11.57173     13.82507      2.33378        -0.300122     -0.570243      0.375003
O      11.66206     13.78243     14.95147        -0.293423     -0.595792      0.573031
O      11.61609      1.98862      6.77437         1.476948     -0.085198      0.028223
O      11.73759     13.46675      6.65588        -0.507785      0.516656     -0.027065
O      11.65138      1.83517     10.93553         0.880310      0.619707     -0.456522
O      11.72094     13.63836     10.77637        -0.639809      0.143865     -0.017936
O      11.78249      5.89119      2.45728        -0.932601     -0.047328     -0.027256
O      11.63681      5.91119     15.06861         0.583646      0.333933      0.105202
O      11.66997      5.74274      6.63934        -0.236261      0.178223      0.299141
O      11.72614      5.74652     10.95531        -0.265573     -0.021687     -0.429484
O      11.69060      9.68217      2.52895        -0.217007     -0.450194     -0.496101
O      11.67334      9.52477     15.00503        -0.307390      0.393757     -0.029053
O      11.72390      9.78489      6.66521        -1.063849     -0.140261      0.378008
O      11.65930      9.85549     10.81264        -0.446370     -0.996320      0.020460
O       1.90463      3.91633      2.57280        -0.382627      0.229959     -0.089074
O       1.93398      3.82531     14.96685        -0.283910      1.090515      0.324881
O       1.89750      0.02718      2.62619        -0.303188     -0.764676     -0.167157
O       1.83732     15.49603     15.08507        -0.090972      0.024735     -0.300872
O      13.61090      3.87499      2.40003         0.166266     -0.148266      0.176828
O      13.59090      3.89217     15.11131         0.131327     -0.022268     -0.380179
O      13.61186     15.50319      2.49502         0.140041      0.692100     -0.000395
O      13.66223     15.60216     14.92091        -0.072000      0.005793      0.445478
O       1.87552      3.95311      6.77165        -0.582705     -0.349730     -0.182990
O       1.84061     15.56803      6.63890         0.197642      0.785637      0.232142
O      13.70010      3.86331      6.71245        -0.287994      0.115039     -0.129486
O      13.56339     15.58241      6.56369        -0.259284      0.211013      0.206261
O       2.07970      3.94054     10.87095        -0.964380     -0.758703     -0.112829
O       2.06133      0.00703     10.90758        -0.601665     -0.366042     -0.325588
O      13.75381      3.91669     10.93938        -0.217248     -0.683764     -0.388229
O      13.60104      0.00439     10.95372         0.414900     -0.022593     -0.656458
O       1.87344      7.83640      2.38767         0.152581     -0.116207      0.314475
O       1.88368      7.82755     14.92542        -0.114510     -0.561162      0.326431
O      13.75677      7.81913      2.55934        -0.393254      0.091372     -0.359514
O      13.70969      7.78070     15.01521        -0.381972      0.405661     -0.040331
O       2.03187      7.86676      6.59688        -0.154652     -0.534110     -0.238712
O      13.53177      7.70052      6.88069         0.238499      0.508896     -0.675979
O       1.88360      7.82203     11.07911        -0.389934     -0.114915     -0.299467
O      13.68223      7.77843     10.82747        -0.345656      0.108619      0.144833
O       1.94422     11.69623      2.51815        -0.231794     -0.195334      0.327165
O       1.81894     11.75806     15.05344         0.355403     -0.793295     -0.528271
O      13.52322     11.61604      2.68940         0.627806      0.111642     -0.882608
O      13.28530     11.60871     14.85007         0.751128      1.515743      0.288052
O       1.84170     11.75080      6.57335         0.287018     -0.878823      0.004382
O      13.75654     11.64846      6.71084        -0.081488     -0.017912     -0.048115
O       1.99564     11.66462     10.94805        -0.209213     -0.379178     -0.942405
O      13.45779     11.68356     10.77552         1.315152      0.704172      0.068945
O       5.65340      3.92495      2.62271         0.469427     -0.460647     -0.134004
O       5.85432      3.90482     14.90750        -0.488466     -0.187274      0.058165
O       5.83558      0.03342      2.51960         0.420076     -0.081225     -0.268537
O       5.79345     15.58583     14.91718         0.527604     -0.026736     -0.218057
O       5.78459      3.77059      6.59867         0.078820     -0.003687      0.276311
O       5.83374      0.00220      6.81374         0.312202     -0.598671     -1.217636
O       5.67585      3.78251     11.01014         0.584481      0.414080     -0.624880
O       5.79880     15.44773     10.88135         0.555791      0.788481     -0.124089
O       5.88354      7.76098      2.62730        -0.376771      0.470264     -0.126114
O       5.74794      7.82347     15.01049         0.715141      0.193964      0.045294
O       5.82246      7.74123      6.70892         0.055035      0.411347     -0.237990
O       5.99163      7.79022     10.77546        -0.067521     -1.816600      0.259448
O       5.80549     11.70933      2.47238         0.369898      0.274566     -0.147806
O       5.85058     11.71387     15.09653        -0.259850     -0.280158     -0.938045
O       5.74110     11.77711      6.68913         0.714395     -0.251490     -0.290495
O       5.84506     11.52384     10.85656         0.061682      1.211929     -0.465617
O       9.83122      3.86343      2.61045         0.075416      0.299563     -0.375557
O       9.85321      3.90590     15.00785        -0.604931     -0.354943      0.269746
O       9.59853      0.10858      2.42556         0.110472     -1.631695      0.675469
O       9.70485     15.57906     14.92352        -0.195962      0.135967      0.433175
O       9.69438      3.83248      6.70353        -0.017568      0.847581      0.115791
O       9.81207     15.60636      6.62388        -0.230991     -0.709368      0.695345
O       9.84009      3.79442     10.99517        -0.139432      0.668235     -0.541353
O       9.72025     15.57754     10.77428        -0.198936     -0.610868      0.433072
O       9.71257      7.64042      2.50649         0.044340      2.278030      0.382816
O       9.59924      7.80095     14.95794         0.167221      0.277584      0.325247
O       9.72298      7.83942      6.51204         0.151704     -0.936345      0.754870
O       9.85067      7.76497     10.79549        -0.514216      0.022674     -0.021546
O       9.69927     11.67658      2.44166         0.055580      0.321148     -0.053547
O       9.83857     11.62430     15.11497        -0.305656      0.684863     -0.737531
O       9.69406     11.66367      6.62103        -0.227557      0.425291      0.033343
O       9.75655     11.70809     10.76725        -0.280486     -0.808710      0.066310
