  # total energy = -7883.43013456 
CRSYTAL
PRIMVEC
    15.6080000000000005    0.0000000000000000    0.0000000000000000
     0.0000000000000000   15.6080000000000005    0.0000000000000000
     0.0000000000000000    0.0000000000000000   16.6239999999999988
PRESSURE
0.123452 -0.093129 1.21108 0.133976 0.026318 -0.056004
PRIMCOORD
320 1
Pb       3.83918      3.80843      4.10418        -0.311391     -0.031911      0.488660
Pb       3.87096      3.85817     16.53848         0.324211     -0.127897      0.372711
Pb       3.91242     15.51230      4.08319        -0.265314     -0.070430      0.715999
Pb       3.96693     15.58036     16.53149        -0.104788      0.272184      0.613300
Pb       0.02397      3.93325      4.09953         0.309082     -0.103959      0.399506
Pb       0.03449      3.86001     16.60941        -0.775640      0.066601      0.121489
Pb       0.01328     15.51199      4.14759         0.232822      0.082128      0.224906
Pb      15.60343      0.00145     16.54365        -0.281125     -0.206494      0.703797
Pb       3.98203      3.87480      8.18729        -0.933272     -0.131485      0.701982
Pb       3.87078     15.42677      8.16724        -0.075451      0.820558      0.588947
Pb      15.56690      3.90862      8.27161        -0.052137     -0.408640      0.227406
Pb      15.50149     15.51448      8.30624         0.484077      0.747718     -0.332434
Pb       3.84847      3.79928     12.44494        -0.078657      0.058594     -0.557072
Pb       3.94278      0.06870     12.53720        -0.086401      0.025349     -0.537176
Pb       0.01512      4.04476     12.55344        -0.001438     -0.296124     -0.680611
Pb       0.06539     15.54805     12.47213        -0.161557      0.548319     -0.582874
Pb       3.94347      7.78154      3.97175        -0.550092     -0.054067      0.923570
Pb       3.91262      7.81343     16.56968        -0.205198      0.108813     -0.005414
Pb      15.44249      7.76993      4.09641         0.355496     -0.081729     -0.018926
Pb      15.59500      7.71588     16.55623        -0.274907      0.961369      0.573089
Pb       3.75037      7.77290      8.30165         0.706472      0.129862      0.090965
Pb      15.51307      7.70682      8.35016        -0.305071      0.016726      0.106955
Pb       3.89779      7.73742     12.35133        -0.186328     -0.001403      0.292378
Pb      15.55093      7.76484     12.39337         0.208742     -0.293156      0.373303
Pb       3.88255     11.67859      4.09421         0.213416      0.057005      0.908939
Pb       3.83347     11.74569      0.04870         0.116199     -0.401942     -0.685454
Pb      15.57112     11.61909      4.08325         0.089241     -0.052400      0.013297
Pb      15.58181     11.60990     16.53800        -0.066880     -0.091342     -0.127277
Pb       3.89659     11.74884      8.40540         0.220216     -0.523988     -0.401020
Pb       0.07334     11.73230      8.26265        -0.156238      0.007918      0.313517
Pb       3.80524     11.64379     12.42730         0.206160      0.039073      0.252211
Pb      15.53824     11.80593     12.51431         0.411131      0.068202     -0.236221
Pb       7.80918      3.88779      4.08442         0.577585     -0.328164      0.549002
Pb       7.82566      3.86904     16.57879         0.105276      0.121010      0.732911
Pb       7.83208      0.01071      4.19014        -0.011951     -0.095796     -0.228962
Pb       7.77173     15.60192     16.52564         0.739840      0.332947      0.616078
Pb       7.87312      3.78970      8.25473        -0.125616      0.624058      0.467001
Pb       7.74092      0.02582      8.13591         0.065085     -0.084163      0.831200
Pb       7.86666      3.83821     12.49366        -0.437186     -0.036167     -0.390007
Pb       7.75788     15.57715     12.32301        -0.510069     -0.051356      0.582080
Pb       7.92753      7.77949      4.14924        -0.625137      0.246369      0.745628
Pb       7.63936      7.61506      0.02257         0.225478      0.326487     -0.181970
Pb       7.76121      7.72760      8.21393         0.020795     -0.021209      0.140024
Pb       7.64584      7.89590     12.43914         0.259259     -0.196622      0.879858
Pb       7.80915     11.66009      4.10092        -0.249069      0.349593      0.795763
Pb       7.77883     11.77510     16.57439         0.024805     -0.266929      0.244148
Pb       7.94889     11.68074      8.37266        -1.009795      0.044577     -0.286613
Pb       7.78854     11.80743     12.42721        -0.256086     -0.390201      0.282967
Pb      11.69874      3.79794      4.07332         0.006289      0.413756      0.073980
Pb      11.64987      3.85813      0.09012        -0.021542     -0.271536     -0.230789
Pb      11.72303     15.51983      4.10330        -0.159445      0.229303     -0.208588
Pb      11.72499     15.59516     16.50949        -0.719023      0.283389      0.510014
Pb      11.68843      3.90460      8.31443         0.130266     -0.006990     -0.059146
Pb      11.80826      0.02739      8.36438        -0.134432      0.094236      0.002535
Pb      11.65454      3.91012     12.33164        -0.010988      0.045993      0.853774
Pb      11.48238      0.09425     12.42946         1.155127     -0.479197      1.113570
Pb      11.69792      8.01211      4.25390         0.399936     -0.136145     -0.422837
Pb      11.77740      7.76862     16.58740        -0.557561      0.276603      0.097704
Pb      11.70968      7.66641      8.38442         0.051946      0.461446     -0.076572
Pb      11.70582      7.88810     12.43883        -0.480447     -0.091442      1.045688
Pb      11.83448     11.73998      4.09454        -0.367356     -0.399972     -0.015881
Pb      11.52131     11.61399     16.59310         0.170557      0.273160      0.312113
Pb      11.62210     11.74608      8.40894         0.271843     -0.158460     -0.035858
Pb      11.67056     11.62070     12.49296        -0.522960      0.264603      0.000025
Ti       1.93587      1.77220      2.20240        -0.210416      0.897223      1.158064
Ti       1.86975      1.92320     14.70410         1.093069     -0.730448     -0.020463
Ti       1.95204     13.53760      2.16147        -0.310266      0.935489      1.640745
Ti       1.92143     13.67396     14.77905         0.329676     -0.555266     -1.118718
Ti      13.72747      1.92868      2.19666        -0.592276     -0.206363     -1.025273
Ti      13.66643      1.94075     14.72038        -0.863341      0.727470      0.949163
Ti      13.65162     13.68878      2.12955         0.243452     -0.497890      0.471428
Ti      13.63020     13.68207     14.64637        -0.306744     -0.079338      0.304228
Ti       1.91868      2.02728      6.34987         0.009817     -0.855609      0.378052
Ti       1.95624     13.61532      6.40122         0.192336      0.950331     -0.392441
Ti      13.62367      1.97389      6.35933         0.880090     -0.231498      0.107882
Ti      13.57102     13.63586      6.40719         0.599644      0.153539      0.346587
Ti       1.82872      1.98145     10.38648         0.429122     -0.219268      1.480156
Ti       1.94878     13.69278     10.54607        -0.011454      0.061240     -0.272046
Ti      13.63931      1.93590     10.61782         1.349129     -0.108502     -1.035261
Ti      13.57833     13.67714     10.57124        -0.156250      0.863291      0.897477
Ti       1.97999      5.78491      2.16823        -1.120824      0.244001      1.484190
Ti       1.81983      5.82608     14.85292         0.873725      0.979539     -1.443297
Ti      13.65313      5.76481      2.18973         0.188107      1.497414     -0.037713
Ti      13.53834      5.87477     14.76960         0.422165     -0.306865     -0.763733
Ti       1.83718      5.91025      6.41693         0.469288     -0.986370     -0.630590
Ti      13.54962      5.85076      6.41178         0.198184     -0.090662     -0.745529
Ti       1.98955      5.87153     10.44403        -1.195161     -0.852746      1.193867
Ti      13.55671      5.82853     10.66474         1.216450      0.108570     -1.376206
Ti       1.97784      9.71735      2.13475        -0.758556     -1.036565      0.671435
Ti       1.93527      9.73362     14.62860        -0.167175     -0.177617      0.985302
Ti      13.70023      9.75907      2.10932        -0.753093     -0.735188     -0.243950
Ti      13.56837      9.87281     14.62457         0.506699     -1.244218      1.176707
Ti       1.89274      9.73061      6.45660         0.908662      0.030650     -1.278438
Ti      13.59957      9.78933      6.45084         0.175290     -0.229672     -0.140900
Ti       1.85705      9.77214     10.57839         0.645019      0.381019      0.121371
Ti      13.60371      9.81105     10.56363        -0.317083     -0.129529     -0.323013
Ti       5.79630      1.87072      2.28439         0.938079      0.287089     -0.826548
Ti       5.85232      1.98723     14.73659        -0.083903     -0.202662     -0.740624
Ti       5.86122     13.66292      2.19838         0.714846     -0.192401      0.064041
Ti       5.83498     13.67072     14.75866         0.254719     -0.927607     -0.977853
Ti       5.86458      2.00430      6.39151        -0.795967     -1.011346      0.489937
Ti       5.85811     13.62234      6.40450        -0.029602     -0.916129     -0.002108
Ti       5.78749      1.84945     10.46821         0.016238      0.395846      0.720175
Ti       5.75065     13.57064     10.51274        -0.015132      0.771553     -1.446179
Ti       5.87764      5.73485      2.37259         0.190893      0.345597     -0.817541
Ti       5.70886      5.80498     14.61265         1.024560      1.044181     -0.340400
Ti       5.76788      5.81076      6.36651         0.288432      0.181117      0.615297
Ti       5.92712      5.72300     10.53069        -0.887475     -0.236968      2.044972
Ti       5.81181      9.76476      2.23689         0.750662     -0.433758     -0.838580
Ti       5.80588      9.76741     14.77486         0.311945     -0.195656     -0.435992
Ti       5.86250      9.71528      6.52921        -0.584082      0.889849     -0.572583
Ti       5.82266      9.71577     10.55585        -0.355671     -0.104639     -0.790491
Ti       9.76385      1.93608      2.24380        -0.459846     -0.242515     -0.922635
Ti       9.76910      2.04162     14.69263         0.314407     -1.122114      1.566303
Ti       9.75474     13.61502      2.27407        -0.160868      0.716949     -1.386458
Ti       9.74294     13.63911     14.65960        -0.582930      0.645791      0.200760
Ti       9.78331      2.01277      6.34291        -0.125282     -0.516536     -0.430524
Ti       9.77716     13.71103      6.44169        -0.919187     -0.255277      0.158729
Ti       9.71488      1.90727     10.53229        -1.140667      0.593594     -0.446258
Ti       9.70563     13.66115     10.57330         0.271465     -0.433034      0.639850
Ti       9.79857      5.88237      2.30370         0.100362     -0.437390     -0.603713
Ti       9.68820      5.85014     14.64916         0.324781      0.564099      0.057340
Ti       9.72302      5.85722      6.34817        -0.346952     -0.103908     -0.944198
Ti       9.67283      5.89112     10.56570        -0.299000     -0.855998      0.603737
Ti       9.67021      9.77052      2.28166         1.351781     -0.124667     -1.591283
Ti       9.66405      9.71223     14.75210        -0.172648     -0.682305     -1.070764
Ti       9.77307      9.78726      6.47362        -0.587505     -0.605213      0.332659
Ti       9.69468      9.67573     10.53465         0.177723      0.791813      1.059082
O       1.98713      1.84191      0.46258        -0.322398      0.414635     -0.610983
O       1.92682      1.83006     12.94731         0.037600     -0.028078      0.375103
O       2.03486     13.50623      0.43384        -0.112436      0.161564     -0.917236
O       1.86889     13.71079     12.97444         0.202137     -0.012057      0.382697
O      13.62176      1.88269      0.38563         0.730766      0.491583      0.966642
O      13.66022      1.86198     13.02009        -0.051316      0.076587     -1.973682
O      13.57168     13.62665      0.39815         0.108467     -0.030741     -0.064901
O      13.75495     13.68188     12.89134         0.106914      0.005270      0.013835
O       1.99025      1.99413      4.56785        -0.199166     -0.539168      0.130852
O       2.06105     13.73512      4.63322        -0.518167     -0.482321     -0.166233
O      13.69649      1.99006      4.59604        -0.642352     -0.195306     -0.602520
O      13.61105     13.64793      4.63725        -0.018613     -0.002886     -0.344940
O       1.82665      2.05999      8.65879         0.093389     -0.125627     -0.556224
O       1.96489     13.37948      8.75131        -0.050297      0.774787     -0.002569
O      13.65380      1.98940      8.77756        -0.308286     -0.115931      0.774629
O      13.49285     13.74891      8.78074         0.124425     -0.157730      0.066768
O       1.83635      5.76848      0.43350         0.186159     -0.410862     -1.421862
O       1.77576      5.93763     13.07953         0.344579     -0.515014     -0.392691
O      13.84715      5.96587      0.41487        -0.656609     -0.614422     -0.097519
O      13.56008      5.79081     12.98183         0.157334      0.086937     -0.741680
O       1.84894      5.95371      4.64277         0.062944      0.004236      0.102262
O      13.57094      5.79241      4.60682        -0.037470      0.314458      0.391281
O       1.90238      5.86801      8.70302        -0.161581     -0.227056     -0.364558
O      13.55409      5.98821      8.79515        -0.046051     -0.419914      0.456786
O       1.95560      9.77387      0.39174         0.020857      0.254347      0.116900
O       2.08642      9.70364     12.88061        -0.385267      0.048218     -0.739058
O      13.80319      9.69992      0.33296        -0.556135      0.414924     -0.091529
O      13.38784      9.82978     12.88089         0.623082      0.144943     -0.918046
O       1.91268      9.59923      4.65089         0.031520      0.278299      0.500116
O      13.65568      9.80848      4.63440         0.040847     -0.020100      0.510870
O       1.91140      9.82924      8.82117        -0.446182     -0.083435     -0.320596
O      13.47366      9.74907      8.77626         0.492794     -0.150549      0.724297
O       5.87442      1.90789      0.48008        -0.169833      0.362385      0.175403
O       5.82302      1.80987     12.96277        -0.023382      0.093279      0.251731
O       5.79974     13.66272      0.40044         0.281378     -0.182571      0.606260
O       5.92762     13.67002     12.97128        -0.171376     -0.107340     -0.368465
O       5.85488      1.93187      4.65499         0.018399     -0.360821     -0.984281
O       6.03264     13.64991      4.61117        -0.653847     -0.008314     -0.041537
O       5.84254      1.94406      8.72078         0.006755      0.018882     -0.195656
O       5.51116     13.51732      8.67353         0.922865      0.488571      1.542615
O       6.02403      5.59404      0.60554        -0.466502      0.514029      0.100295
O       5.64694      5.87720     12.84523         0.114232     -0.071511      0.240931
O       5.71583      5.72800      4.63096         0.330889      0.238969     -1.162653
O       5.82509      5.75524      8.82427         0.288045      0.056197     -1.242413
O       5.84009      9.67764      0.45118        -0.142803      0.104440      0.532802
O       5.85091      9.81385     13.01100        -0.452206     -0.371663     -1.127344
O       5.90908      9.75448      4.75158        -0.344208     -0.191089     -0.935068
O       5.94766      9.61660      8.77676        -0.304430      0.271584      0.750734
O       9.66590      1.96154      0.45494         0.365592     -0.204547      0.218401
O       9.74308      2.02237     12.94499        -0.043348      0.250406     -1.211181
O       9.79660     13.63941      0.45864        -0.094442     -0.345758      0.582483
O       9.55127     13.68885     12.89883         0.174962     -0.348636     -0.452938
O       9.80096      1.97286      4.54334         0.335667      0.284674      0.263087
O       9.84279     13.48518      4.72751        -0.269049      0.508784     -1.315983
O       9.51693      1.83390      8.76757         0.961196      0.355181      0.138936
O       9.92832     13.68985      8.86105        -0.304068      0.110165     -1.587464
O       9.70238      6.09929      0.54271        -0.234696     -0.210179     -0.306081
O       9.80104      5.76881     12.87830         0.034937     -0.206221      0.343202
O       9.80910      5.64543      4.54787         0.386838      0.548528      0.258915
O       9.49283      5.82202      8.83021         0.726880      0.270650     -0.551480
O       9.75146      9.72074      0.43015        -0.094766      0.140122      0.974179
O       9.84629      9.83440     12.94420        -0.491006     -0.091207      0.249920
O       9.72305      9.78600      4.72294         0.163062      0.130319     -1.046046
O       9.67346      9.60657      8.78383         0.132492      0.407279     -0.242478
O       3.87385      1.87430      2.52111         0.276293      0.164306      0.090996
O       3.93221      1.88178     15.02705        -0.073128      0.121960      0.071919
O       3.98029     13.60321      2.59890        -0.296149     -0.093439     -0.377868
O       3.87623     13.66341     15.00206         0.384189     -0.447645      0.117133
O       0.01252      1.80759      2.62056         0.056261      0.290849     -0.562541
O       0.01202      1.82639     15.03903         0.005974      0.191997      0.049392
O       0.04613     13.64888      2.57073        -0.435394     -0.366293     -0.363020
O       0.01735     13.63041     15.09060        -0.511636      0.347359     -0.215078
O       3.88848      1.99788      6.63254        -0.422964     -0.176922      0.219599
O       3.92383     13.69302      6.61025        -1.129000     -0.277469     -0.052117
O      15.56990      1.90291      6.63513        -0.500066      0.195582      0.198747
O      15.51970     13.72186      6.73101        -0.034346     -0.811963     -0.099557
O       3.84363      1.93196     10.93354         0.395178     -0.226913     -0.422013
O       3.86431     13.65059     10.85999        -0.306598      0.043729      0.530195
O      15.57612      1.94833     10.89257        -0.253359      0.152359     -0.030406
O       0.10158     13.58235     10.92262        -1.864702      0.303358     -0.328090
O       3.81417      5.68588      2.50829         1.679735      0.191894      0.055539
O       3.92346      5.85938     15.13063        -1.373677     -0.316261      0.151007
O       0.03221      5.86838      2.57970        -0.283213      0.327610     -0.009282
O      15.56396      5.95159     15.09022         0.017346     -1.066793     -0.363697
O       3.83855      5.80620      6.65969        -0.172751      0.025525      0.313758
O      15.49672      5.76597      6.76287        -0.198342      0.601494     -0.151538
O       3.78765      5.71713     10.79667         1.120813      0.581694      0.253712
O      15.54342      5.92359     10.77961         0.195285     -0.295335      0.602285
O       3.90581      9.80597      2.53933         0.401795     -0.061724      0.004058
O       3.86400      9.79019     15.02274         0.284503     -0.397265      0.316120
O      15.60769      9.70071      2.48327         0.836976      0.137719      0.333575
O      15.60657      9.81375     14.83818        -0.453200     -0.114497      0.083481
O       3.86465      9.65210      6.86925        -0.446095     -0.191709     -0.401694
O      15.58771      9.81988      6.79831        -0.629258     -0.076423     -0.139960
O       3.86773      9.74297     10.75933         0.226905     -0.027911      0.430589
O      15.50659      9.74053     10.84623        -0.042716      0.069907      0.157884
O       7.85576      1.82500      2.63545        -0.680872      0.250227     -0.134797
O       7.77820      2.01421     15.10643        -0.200674     -0.035973     -0.730361
O       7.86877     13.71553      2.62956        -0.521447     -0.344493     -0.468146
O       7.83575     13.71235     15.11247        -0.268235     -0.340038     -0.139825
O       7.81702      2.05663      6.66162        -0.303853     -0.361281     -0.190943
O       7.70739     13.54694      6.82991         1.261993      0.318627      0.159736
O       7.75525      1.87822     10.89522         0.388326      0.081707     -0.070228
O       7.70696     13.72639     10.64602         0.810081     -0.559261      0.439292
O       7.86919      5.89607      2.72668        -1.056766     -0.220280     -0.387367
O       7.78709      5.75151     14.94304         0.106316      0.426594      0.016651
O       7.87182      5.76785      6.63113        -1.649380     -0.057858     -0.000811
O       7.77745      5.81647     11.07668        -0.197863      0.055888     -0.677018
O       7.80919      9.74821      2.50987        -0.294027     -0.484377      0.365313
O       7.71634      9.54252     14.93162         1.301444      0.437570      0.540300
O       7.77021      9.74970      6.80619         0.301990      0.005354      0.020060
O       7.73847      9.78808     10.97680         0.753714      0.034094     -0.388012
O      11.75067      2.03647      2.41599         0.183103     -0.182693      0.617352
O      11.71991      2.06470     15.08585        -0.213239     -0.390392     -0.238551
O      11.71105     13.59557      2.57145         0.779307      0.041667      0.084793
O      11.60896     13.68257     14.85537         0.988727     -0.357855      0.234964
O      11.65718      1.93515      6.69954        -0.148122      0.040543      0.197312
O      11.61516     13.69294      6.70548         0.852225      0.226286      0.343927
O      11.70939      1.90953     10.83797        -0.802639      0.327936     -0.137822
O      11.69049     13.81170     11.03300         0.311613     -0.685966     -0.614335
O      11.72808      5.73368      2.31632         0.435820     -0.073992      0.636393
O      11.70685      5.81575     15.14361        -0.278165     -0.114753      0.007757
O      11.59865      5.91486      6.80191         1.011381     -0.252651      0.137752
O      11.65990      5.77135     10.74567        -0.683204      0.053198      0.262685
O      11.72848      9.81306      2.49131         0.006267      0.033754      0.276894
O      11.67123      9.89343     15.02199         0.197713     -0.200581      0.203184
O      11.66355      9.71711      6.75394         0.242395     -0.049684     -0.118964
O      11.64940      9.78563     10.91431        -0.091731     -0.254556     -0.555669
O       1.87993      3.83912      2.63163         0.083393      0.035113     -0.856477
O       1.97273      3.79706     15.00470        -0.362472      0.879064      0.260811
O       1.91691     15.47865      2.56395         0.537239      0.568424     -0.260428
O       2.02666     15.58153     15.17821        -0.571119     -0.242364     -0.638934
O      13.83869      3.89379      2.48716        -0.429111     -0.375523     -0.290566
O      13.74662      3.88914     14.94945         0.316142      0.148329      0.656192
O      13.68119     15.60564      2.37631        -0.342991     -0.595843      0.804737
O      13.57931     15.58298     15.10916         0.587461     -0.411851     -0.556166
O       1.80819      3.89760      6.71469         0.364655      0.320212     -0.330231
O       1.88071     15.54126      6.77120         0.078472      0.357615     -0.084740
O      13.51004      3.90957      6.70199        -0.043669      0.095458      0.267247
O      13.55574      0.03388      6.71930        -0.045099     -0.475130      0.002756
O       1.91645      3.84477     10.91787        -0.412451      0.889206     -0.100578
O       1.80331      0.02695     10.68801         0.494689     -0.607402      0.200861
O      13.72238      3.90874     11.01012        -0.579237     -0.190672     -0.393064
O      13.69488      0.01197     10.88310         0.047337     -0.086254     -0.154539
O       2.13271      7.79024      2.31533        -0.338463      0.051931      0.431157
O       1.89338      7.75495     15.09356         0.664466      0.530995      0.015356
O      13.59021      7.81501      2.43795         0.212568     -0.211598      0.749351
O      13.54727      7.86151     14.80927         0.157453     -0.155298      0.659770
O       1.81059      7.75443      6.85994         0.071216      0.734685     -0.209596
O      13.63795      7.81436      6.64954        -0.060334      0.082865      0.257194
O       1.88682      7.78237     10.83765         0.196647      0.289789     -0.122858
O      13.52988      7.73853     11.03229         0.361037      1.082372     -0.717925
O       2.02552     11.68618      2.56608        -0.367090     -0.480546      0.003108
O       1.94158     11.62710     15.06276         0.158295      1.019233     -0.343506
O      13.77751     11.65978      2.47509        -0.302641      0.800961      0.172070
O      13.66153     11.77312     14.94990        -0.065531     -0.126815      0.084497
O       1.96523     11.69560      6.61071        -0.367583     -0.389568      0.204808
O      13.49157     11.73193      6.78903         0.374184      0.011132     -0.234506
O       1.89028     11.73270     10.96925         0.245216     -1.010606      0.038461
O      13.57448     11.78917     10.88293         0.138597     -1.023436     -0.247654
O       5.92171      3.78538      2.73346        -0.420549      0.449447     -0.753984
O       5.75282      3.95673     14.83789         0.150742     -1.796236      0.689339
O       5.84950     15.58489      2.52430         0.040459     -0.369756      0.210834
O       5.88599     15.51698     15.04464        -0.223839      1.482090     -0.013325
O       5.76038      3.85344      6.75271         0.706719      0.756991     -0.259618
O       5.78668     15.57985      6.81110         0.553901      0.425675     -0.741747
O       5.87493      3.81123     10.87814        -0.149250      0.324610      0.127287
O       5.81775     15.53862     10.77578        -0.322191      0.516906      0.272168
O       5.85465      7.71660      2.52506        -0.216373      0.318387      0.064227
O       5.80980      7.73087     15.06877        -0.167851     -0.058342      0.043882
O       5.79810      7.65184      6.74705         0.295435      0.779027      0.004888
O       5.85709      7.75638     10.92593        -0.274499      0.297311     -0.366107
O       5.95950     11.67830      2.42934        -0.337335      0.123648      0.378388
O       5.97548     11.67871     15.02646        -0.376655      0.343958      0.333064
O       5.72870     11.67461      6.75358         0.229143     -0.464215     -0.063403
O       5.77866     11.71283     10.83988         0.170582     -0.648775      0.146290
O       9.67736      3.89708      2.32423         0.185709      0.135584      0.782217
O       9.81837      3.92095     15.13773        -0.383333      0.605073     -0.232817
O       9.83108     15.56000      2.50737         0.325374     -0.037656      0.753014
O       9.79352      0.11949     14.89718        -0.246552     -0.889713      0.390833
O       9.78048      3.93063      6.74892         0.304959     -0.937037      0.164752
O       9.56060      0.04460      6.55814         0.444436     -0.487760      0.195405
O       9.65534      3.87831     10.81291         0.301199     -0.582860      0.101270
O       9.77009     15.57907     10.92514        -0.554723      0.905204     -0.278818
O       9.85607      7.85063      2.81097        -0.317096     -0.045925     -0.641090
O       9.87060      7.78940     14.88197        -0.200296     -0.419329      0.357482
O       9.65216      7.77630      6.60178         0.255564      0.079759      0.192864
O       9.67912      7.78706     10.86722         0.148386      0.340743      0.021197
O       9.74459     11.67291      2.63493         0.030734     -0.018840     -0.353491
O       9.60831     11.66369     15.02077         0.236491      0.702454      0.039088
O       9.71496     11.69652      6.82153         0.235888      0.118627      0.368487
O       9.82593     11.73206     10.79061        -0.602549     -0.217574      0.064304
