  # total energy = -7880.93245566 
CRSYTAL
PRIMVEC
    15.6080000000000005    0.0000000000000000    0.0000000000000000
     0.0000000000000000   15.6080000000000005    0.0000000000000000
     0.0000000000000000    0.0000000000000000   16.6239999999999988
PRESSURE
-0.434625 -0.735995 -0.908267 -0.170476 -0.267421 0.091303
PRIMCOORD
320 1
Pb       3.99793      3.98965      4.16945        -0.327470     -0.237516     -0.415458
Pb       4.06745      4.09668      0.13232        -0.200749     -0.602742     -0.237499
Pb       3.87763      0.03056      4.02387        -0.067361     -0.547971      0.304508
Pb       3.77355     15.57385     16.61984         0.227662     -0.235493     -0.364873
Pb       0.08950      3.83919      4.14532        -0.142324      0.199134     -0.113295
Pb      15.45761      3.82849      0.01013         0.926878     -0.120264     -0.398324
Pb      15.53527     15.57488      3.99980        -0.077876      0.008659      0.366552
Pb      15.48375     15.55656     16.58765         0.078515     -0.034940     -0.372302
Pb       3.67667      3.80264      8.34651         0.111596      0.395055     -0.386530
Pb       3.88884      0.07000      8.33083         0.497467     -0.357209     -0.713374
Pb      15.55865      3.79095      8.26930        -0.240078      0.709974      0.069993
Pb       0.14300     15.57324      8.19755        -0.620461      0.111131      0.002381
Pb       3.92592      3.95349     12.35565        -0.297548     -0.399013      0.811625
Pb       3.83906     15.40613     12.27030         0.018288      0.763598      1.016015
Pb      15.58557      3.75052     12.42359        -0.055395      0.751416      0.456329
Pb      15.53457      0.29814     12.56690         0.318251     -1.364890      0.555514
Pb       3.80791      7.84381      4.33819         0.153946      0.108002     -0.780109
Pb       3.81103      7.73794      0.01989         0.369089      0.313910     -0.309919
Pb       0.24710      7.90134      4.22866        -1.242022     -0.541224     -0.113502
Pb       0.03053      7.73604      0.03078        -0.138668      0.454092     -0.347452
Pb       4.09497      7.69640      8.06522        -1.004774      0.162131      0.957444
Pb      15.43150      7.76442      8.53754        -0.249992     -0.146326     -0.562832
Pb       3.91620      7.88706     12.44967         0.209994     -0.242130     -0.075572
Pb       0.00336      7.95650     12.59720        -0.304558     -0.610216     -0.662043
Pb       3.84458     11.67047      4.08880        -0.223527      0.077025     -0.398734
Pb       3.92464     11.59400     16.43602        -0.125917      0.296696      0.723759
Pb      15.59030     11.65431      4.08045         0.117003     -0.029698     -0.062533
Pb      15.54381     11.81725     16.55571         0.155412     -0.140350     -0.152637
Pb       3.82698     11.62780      8.07263         0.070240      0.237725      0.636956
Pb      15.55702     11.62382      8.33875         0.421388     -0.232411     -0.207446
Pb       4.05762     11.69681     12.31686        -0.667715     -0.159682     -0.034002
Pb       0.18183     11.51757     12.29641         0.123964      0.947927      0.385427
Pb       7.87647      3.75543      4.20160        -0.466707      0.303928     -0.343237
Pb       7.86916      4.00733      0.11839        -0.444512     -0.203710     -0.134594
Pb       7.80093     15.44144      3.98490         0.197901      0.206604      0.537730
Pb       7.91869      0.17075      0.10416        -0.395658     -0.480402     -0.437304
Pb       7.58142      3.99215      8.32809         0.814752     -0.496769      0.165543
Pb       7.86076     15.50727      8.36089        -0.467720      0.239775     -0.538956
Pb       7.65622      3.80991     12.39934         0.375235     -0.045296      0.002473
Pb       7.66319     15.56380     12.56200         0.384616      0.018055     -0.853692
Pb       7.70048      7.86595      4.16825         0.291388     -0.413284     -0.197435
Pb       7.87946      8.02497     16.59639        -1.059121     -0.898600      0.088000
Pb       7.79956      7.77193      8.26631         0.533556     -0.062381     -0.142575
Pb       7.87062      7.56691     12.31119        -0.501461      0.644726      0.404519
Pb       7.99967     11.67685      4.33474        -0.366108      0.304640     -0.780315
Pb       7.67507     11.66293      0.04565        -0.042112      0.346603     -0.471204
Pb       7.59764     11.74010      8.08427         0.974147      0.033765      0.863954
Pb       7.67958     11.48186     12.41067         0.545888      0.396997     -0.331863
Pb      11.75915      3.95657      4.34472         0.116439     -0.714912     -0.423192
Pb      11.82750      4.08936      0.10542        -0.606068     -0.820349     -0.471353
Pb      11.48148     15.49252      4.15662         0.745734     -0.026927     -0.465301
Pb      11.55475     15.53104      0.10343         0.533493     -0.096761     -0.455337
Pb      11.78318      4.07910      8.37090        -0.148559     -0.553757     -0.222144
Pb      11.63300      0.11202      8.24087         0.358030      0.214786     -0.055039
Pb      11.86826      3.81810     12.61065        -0.481400     -0.004453     -0.477799
Pb      11.92096     15.52678     12.41354        -0.935086      0.356859      0.489449
Pb      11.72250      7.43675      4.00128         0.075250      1.473796      0.745127
Pb      11.35675      7.77425      0.01696         1.464421      0.116929     -0.423287
Pb      11.53200      7.96406      8.19456         0.687815     -0.318695      0.524901
Pb      11.54587      7.86222     12.66078         0.071425     -0.006339     -0.657268
Pb      11.57455     11.30291      4.26851         0.721197      1.358435     -0.110728
Pb      11.80582     11.79094     16.51948        -0.032934      0.133455      0.118071
Pb      12.07232     11.94749      8.38531        -1.504249     -1.100287      0.079690
Pb      11.64022     11.86955     12.40941        -0.222341     -0.291411      0.091146
Ti       2.00957      1.95877      2.17120        -1.351272      0.568921      0.268481
Ti       1.99993      1.99961     14.67312        -0.461319      0.377266     -0.468999
Ti       1.94390     13.66304      2.17303         0.126568     -0.707243     -0.519594
Ti       2.03276     13.65547     14.53216        -1.214018     -0.263016     -0.956054
Ti      13.61050      1.98827      2.28530         0.158624     -0.848668     -0.221030
Ti      13.58192      1.94046     14.76538        -0.026482     -0.464205      0.140282
Ti      13.59179     13.58603      2.31225        -0.407274      0.451194     -1.080037
Ti      13.68409     13.66789     14.58233        -0.101395     -0.253755     -0.340291
Ti       1.97783      1.89926      6.30032        -1.065137      0.023846      0.203638
Ti       1.90541     13.51308      6.32860         0.141284      0.500718     -0.028413
Ti      13.67531      1.90137      6.33254        -0.621069      0.532959      0.151281
Ti      13.73017     13.67114      6.33132        -0.198408      0.107700     -1.050547
Ti       1.90349      1.92086     10.56496         0.490179     -0.170600      1.299023
Ti       1.92401     13.67488     10.39727        -0.185777     -1.216009      1.296874
Ti      13.62700      2.00022     10.47090        -0.370885     -0.343185     -0.045138
Ti      13.76703     13.66518     10.49744         0.006153      0.530768      1.335408
Ti       1.94370      5.84388      2.22660        -0.626036     -0.275118      0.657503
Ti       1.95350      5.85483     14.57939        -0.119550     -0.329421      0.389990
Ti      13.69316      5.84324      2.14454         1.180376      0.081526      1.687782
Ti      13.65168      5.84566     14.67306        -0.016307      0.717094      0.015041
Ti       1.79439      5.79674      6.42012         0.093121     -0.034324      0.778944
Ti      13.59935      5.87309      6.34278         0.640893      0.241993      1.139099
Ti       1.81710      5.77885     10.60968        -0.552224      0.836718     -1.627145
Ti      13.55180      5.94268     10.57761         0.348910      0.051255     -0.467573
Ti       1.94032      9.70263      2.16566        -0.204271      0.650201      0.197074
Ti       1.92286      9.79142     14.66266        -0.117557     -0.318741      0.775614
Ti      13.64243      9.69323      2.24503         0.626178     -0.180355     -0.181377
Ti      13.64012      9.69243     14.71143         0.245581      0.129511      0.928433
Ti       1.86191      9.59472      6.46343        -0.298678      0.659556     -0.816420
Ti      13.60619      9.76323      6.30117         0.368715     -0.867804     -0.353550
Ti       1.97340      9.64795     10.36749         0.087022      0.368310      0.715102
Ti      13.53161      9.81252     10.64742         0.134517     -1.103057     -1.201791
Ti       5.83633      1.88206      2.21407         0.113433      0.764509     -0.755866
Ti       5.83333      1.89253     14.74861        -0.496475      0.156379      0.188000
Ti       5.85093     13.56275      2.22162        -0.580716     -0.526571     -0.006743
Ti       5.83944     13.60810     14.66303         0.044946      0.124160      0.082504
Ti       5.82133      1.91533      6.28278         0.065776     -0.972852      0.485920
Ti       5.76151     13.56881      6.19874         0.200386      1.982594      1.311595
Ti       5.79711      1.92913     10.49914         0.387768     -0.499797     -0.221538
Ti       5.84300     13.60046     10.45156         0.478316     -0.073235     -1.194331
Ti       5.82952      5.90459      2.20302         0.515137     -0.224617     -0.440206
Ti       5.84573      5.80386     14.70110        -0.364096      0.267689     -0.299954
Ti       5.79578      5.69490      6.27650        -0.027992      0.750673      0.066181
Ti       5.72136      5.79595     10.44999         0.694764      0.612240      1.498659
Ti       5.84820      9.72165      2.31220        -0.293198      0.410849     -1.205993
Ti       5.88187      9.63651     14.63034        -0.592585      0.024401      0.503571
Ti       5.86198      9.67909      6.30525        -0.256638     -0.347501     -1.172807
Ti       5.84920      9.62462     10.34391         0.202608      0.374124      0.402133
Ti       9.75179      1.94836      2.22561         0.371740     -0.030960      1.202552
Ti       9.74730      1.92751     14.68209         0.905446      0.129717      0.143704
Ti       9.74440     13.51538      2.18260         0.606157      0.772681      0.050257
Ti       9.68361     13.65410     14.66933         0.193930     -0.391357      0.244327
Ti       9.66282      2.04736      6.41007         0.348958     -0.396657     -0.545077
Ti       9.80101     13.67163      6.42749        -0.310689     -1.063141     -1.705102
Ti       9.79281      1.89374     10.56037        -0.635855      0.492701      0.235932
Ti       9.74180     13.70633     10.52311        -1.252346     -0.438329      0.101739
Ti       9.70841      5.82163      2.22588        -1.138446     -0.227695      0.969611
Ti       9.65602      5.69575     14.71163         0.447433      0.572353      0.431002
Ti       9.68943      5.78439      6.38493         0.211052      0.459374      0.187940
Ti       9.74589      5.69052     10.57485        -0.428181      0.346798     -1.133163
Ti       9.82802      9.73241      2.15340        -0.833291     -0.447914      1.436239
Ti       9.78983      9.80407     14.66333        -0.304017      0.523400     -0.607544
Ti       9.73965      9.80026      6.34921         0.405300     -0.368868      0.745531
Ti       9.75941      9.77760     10.47316        -0.433083     -0.183672     -0.843112
O       1.89569      2.02179      0.41579        -0.042078     -0.340475     -0.627727
O       1.91145      1.86580     12.82280        -0.069331      0.129788      0.829277
O       2.07743     13.58063      0.38669        -0.533120      0.210517      0.320421
O       1.86994     13.60461     12.69093         0.466632     -0.159383      0.944978
O      13.77585      2.02407      0.38438        -0.628773     -0.211187      1.284098
O      13.75672      1.93839     12.91221        -0.774632      0.362225     -0.015562
O      13.53996     13.71058      0.41111         0.224843     -0.278234      0.966039
O      13.63073     13.65401     12.74273        -0.173571     -0.259708      0.723281
O       1.87851      1.99176      4.56978         0.146025     -0.223271     -0.866294
O       1.88001     13.60914      4.58531        -0.129326     -0.077925     -0.755713
O      13.62961      1.77726      4.57436        -0.044801      0.905184      0.012852
O      13.80568     13.59341      4.53657        -0.206366     -0.020213      0.396013
O       1.92250      1.88725      8.82307         0.181816      0.143857     -1.523477
O       1.97621     13.55624      8.63082         0.209045      0.467838     -0.189437
O      13.51444      1.96370      8.71700         0.396766     -0.379613     -0.312931
O      13.62815     13.66965      8.72260        -0.166319      0.164988     -0.765780
O       1.84888      5.96160      0.48494         0.233282     -0.238522     -1.098360
O       2.05862      5.89914     12.80377        -0.082091      0.196948     -0.147878
O      13.70088      5.63944      0.37391         0.075899      0.466025     -0.171734
O      13.44608      5.78516     12.90102         0.143343     -0.015140     -0.140361
O       1.83566      5.80898      4.65638         0.276573      0.193248     -0.605005
O      13.55972      5.84365      4.58395        -0.327941     -0.127393     -0.458283
O       1.65076      5.65302      8.74149         0.804630      0.246789      1.037804
O      13.59959      6.00891      8.68764         0.082691     -0.445398      1.922653
O       1.88584      9.70195      0.40002         0.195439     -0.042656     -0.174625
O       1.80835      9.68205     12.86746         0.155975     -0.085551     -0.430598
O      13.45231      9.66315      0.51116         0.531994      0.176028     -0.636430
O      13.60870      9.64544     12.93640         0.159881      0.361246     -1.185166
O       1.94382      9.60873      4.58857        -0.276953      0.084179      0.640322
O      13.57725      9.77937      4.46867         0.183914     -0.025802      1.076172
O       1.97476      9.72326      8.61786        -0.063663     -0.131401     -0.364439
O      13.59316      9.73790      8.84501        -0.054219      0.112326     -0.230316
O       5.84397      1.92230      0.39290         0.063743     -0.014517      0.848806
O       5.80419      1.85596     12.96234         0.292401      0.153149      0.116502
O       5.72741     13.39316      0.46412         0.301030      0.418576     -0.694044
O       5.76751     13.49524     12.83872         0.436650      0.503127      0.367029
O       5.75400      2.04689      4.50518         0.094449     -0.398110     -0.074885
O       5.79734     13.72246      4.47362         0.208229     -0.325330     -0.228365
O       5.74942      1.99829      8.72568        -0.131863     -0.336950     -0.352176
O       5.71035     13.53418      8.62151         0.498110      0.089092      0.520432
O       5.82834      5.87624      0.34699        -0.331877     -0.357105      0.880959
O       5.76410      5.87610     12.88762        -0.012161     -0.339195      0.005689
O       5.74357      5.83949      4.51498        -0.040431     -0.111183     -0.269070
O       5.89377      5.91938      8.71880        -0.240052     -0.332856     -1.315273
O       5.84989      9.72001      0.43241         0.182159      0.229499      0.649468
O       5.83415      9.61971     12.85527        -0.076217      0.475051     -0.097221
O       5.80511      9.59542      4.46138        -0.124816      0.217670      1.108216
O       5.80328      9.55742      8.53502         0.409502      0.589827      0.012931
O       9.82225      1.92139      0.47832        -0.500080     -0.198479     -0.515577
O       9.71753      2.08251     12.93051        -0.030547     -0.285104     -0.405098
O       9.87590     13.64997      0.38043        -0.262799      0.048822      0.493593
O       9.62424     13.58802     12.88737         0.209013      0.004801     -0.107244
O       9.54421      2.00133      4.54072         0.564563     -0.018139      1.540617
O       9.75180     13.50988      4.46178        -0.265777      0.415837      1.928574
O       9.59943      1.80730      8.77277         0.388772     -0.318737     -0.300615
O       9.70312     13.67944      8.71849        -0.054632      0.325497     -0.479052
O       9.62791      5.84027      0.46984         0.485694      0.056210     -0.916709
O       9.58040      5.73281     12.95359         0.475405     -0.127119     -0.505124
O       9.77513      5.65177      4.58098        -0.023465      0.234361      0.188489
O       9.59774      5.75668      8.74331         0.314034      0.480089      0.462671
O       9.66039      9.61463      0.37222         0.233942      0.356048      0.106350
O       9.82579      9.84505     12.86039        -0.193829     -0.129525      0.659832
O       9.78444      9.78668      4.52174        -0.360732     -0.052284     -0.021113
O       9.75727      9.71995      8.63214        -0.265153     -0.436798      0.508359
O       3.83304      2.03718      2.49706         0.945437     -0.464785      0.047462
O       3.84757      1.89364     15.09094        -0.077522      0.379647     -0.410460
O       3.90288     13.63218      2.51043        -0.553698     -0.203151      0.496671
O       3.86678     13.66015     14.85803         0.457451     -0.557462      0.144333
O      15.53846      1.85294      2.56440        -0.035967      0.331106     -0.305900
O      15.55384      1.95125     14.93055         0.592850     -0.221860      0.312256
O      15.57961     13.78082      2.38252         0.177083     -0.177018      0.125074
O      15.54180     13.66273     14.92529         0.320830     -0.225402      0.390288
O       3.80145      1.84820      6.61755         1.111280      0.248470      0.494481
O       3.82720     13.50912      6.48928         0.636511      0.189042      0.326030
O      15.55747      2.04358      6.70626         0.131708     -0.822594     -0.142970
O       0.00282     13.59571      6.70498        -0.093508      0.134712      0.260545
O       3.88629      1.93031     10.83160        -0.711983     -0.120736     -0.114698
O       3.92493     13.61944     10.80461        -1.030972     -0.383584     -0.384460
O      15.55602      1.78965     10.83312         0.273465      0.896202     -0.413123
O      15.57403     13.49061     10.58562         0.540985      0.261003      0.111008
O       3.81717      5.74755      2.43889         0.495070      0.349571      0.219729
O       3.87175      5.74529     15.06468        -0.297382      0.364684     -0.177021
O      15.56935      5.86956      2.54261        -0.634260     -0.330243     -0.100535
O      15.57890      5.81415     14.85003        -0.023207      0.453392      0.134580
O       3.88339      5.85186      6.66721        -0.183984     -0.106759     -0.075504
O      15.52775      5.86783      6.67702        -0.154561     -0.194445     -0.090101
O       3.84382      5.69452     10.75476        -0.275208      0.589260     -0.285390
O      15.54270      5.85546     11.01394        -0.372654     -0.033322     -0.280999
O       3.81289      9.81082      2.48786         0.619143     -0.161590      0.244505
O       3.81566      9.68568     14.94401         0.787306      0.382238     -0.197180
O      15.60466      9.57953      2.48318        -0.423549      0.370399      0.211738
O      15.53930      9.70246     15.10152         0.919179      0.056787     -0.379446
O       3.83885      9.61577      6.51517         1.101684      0.078097      0.289108
O      15.52189      9.74653      6.67973         0.286696     -0.141756     -0.012050
O       3.94303      9.68779     10.73739        -0.610444      0.012610      0.067797
O      15.58806      9.76231     10.70224        -0.068990     -0.300108      0.464963
O       7.73905      1.81376      2.49518        -0.266744      0.249756     -0.173611
O       7.88625      1.92550     15.04014        -1.619643     -0.099832      0.130531
O       7.80087     13.56983      2.48721         0.153661      0.305882     -0.151363
O       7.75934     13.63399     15.02201        -0.424832      0.310158     -0.093748
O       7.69567      1.99760      6.64358         0.362382      0.001662      0.064504
O       7.81602     13.54956      6.57234        -0.568136      0.151293      0.183071
O       7.71317      2.00215     10.88524        -0.032647     -0.567282      0.023548
O       7.71265     13.67473     10.78695         0.478426      0.047324      0.032295
O       7.72694      5.90426      2.40394         0.210685     -0.026634      0.554175
O       7.75880      5.75492     15.06781         0.591332      0.071261     -0.287263
O       7.70647      5.65710      6.58141         0.503530      0.603517      0.128843
O       7.73753      5.75173     10.75957        -0.226295      0.029868      0.541600
O       7.73619      9.58468      2.61384         0.778324      0.513493     -0.632861
O       7.77886      9.77539     14.92784        -0.189841     -0.099792      0.080640
O       7.83758      9.69704      6.52445        -1.221140      0.203246      0.109122
O       7.80036      9.69835     10.74717        -0.816784     -0.333296     -0.011903
O      11.62441      1.88609      2.63427         0.165905      0.531162     -0.311958
O      11.66609      1.88201     15.04158         0.680520      0.036542     -0.264619
O      11.66911     13.51664      2.60840         0.210506      0.166256     -0.329148
O      11.73489     13.58441     14.91373        -0.559862      0.018013     -0.223715
O      11.63360      2.16038      6.70245        -0.440990     -1.369768     -0.301644
O      11.73000     13.61634      6.64361        -0.403516      0.285919      0.064262
O      11.72290      1.89752     10.82631        -0.146711      0.093406      0.163551
O      11.54886     13.75212     10.80309         1.360663     -0.608795      0.099910
O      11.67864      5.68275      2.45324        -0.486179      0.160495     -0.082674
O      11.69326      5.93456     15.11145        -0.639811     -0.279669     -0.193771
O      11.68017      5.77423      6.72501        -0.762162      0.247812     -0.502242
O      11.61936      5.62124     10.84716         1.140587      0.724637     -0.005847
O      11.67930      9.66532      2.52253        -0.785180      0.295593     -0.120547
O      11.69642      9.73304     14.95814        -0.941925     -0.040663      0.149298
O      11.69574      9.75556      6.60410        -0.157253      0.397547     -0.085487
O      11.61089      9.71529     10.77092         0.902209     -0.203134      0.612438
O       1.81569      3.92504      2.52069         0.084845     -0.741084      0.050520
O       1.80758      3.93320     14.74103         0.571518     -0.781091      0.469209
O       2.04041     15.59884      2.45905        -0.221381      0.327236     -0.001775
O       1.91620     15.47177     14.86844        -0.022231      1.709009      0.598935
O      13.57679      3.86742      2.67753         0.309847     -0.391362     -0.519074
O      13.52396      3.87716     14.99938         0.152868      0.344876     -0.227119
O      13.47869     15.56939      2.65960         0.297658      0.134321     -0.607588
O      13.62924     15.59963     14.90171         0.079352     -0.247901      0.194061
O       1.92139      3.84384      6.66546         0.036379      0.253257      0.376418
O       1.86598     15.60023      6.65556         0.201314     -0.556757      0.152598
O      13.61100      3.90435      6.66900         0.143309      0.312411     -0.145722
O      13.66192     15.58500      6.59526        -0.136148      0.157301      0.581635
O       1.83974      3.84298     10.82646         0.115450     -0.314819      0.263615
O       1.87708     15.54831     10.81698         0.374513     -0.249043     -0.674048
O      13.71285      3.88068     10.73877        -0.161932      0.068628      0.402833
O      13.61997     15.57088     10.89975         0.352894     -0.055445     -0.735761
O       1.88831      7.76989      2.61654         0.793669      0.097672     -0.299446
O       2.05791      7.81905     15.02091        -1.009388     -0.813854     -0.415929
O      13.58154      7.68457      2.48428        -0.342553      0.094119     -0.158463
O      13.70097      7.82308     15.00477        -0.278189     -1.315708     -0.020794
O       1.87331      7.74132      6.73778         0.060657     -0.368088     -0.141504
O      13.56920      7.88041      6.70641         0.066365     -0.433691     -0.405823
O       1.83896      7.73903     10.65849         0.422316      0.381319      0.428224
O      13.62823      7.81790     10.92966        -0.234043     -0.829300     -0.110796
O       1.83082     11.70884      2.53791         0.097812     -0.260678     -0.021726
O       1.89844     11.70701     14.83428        -0.101671     -0.432617      0.364589
O      13.78623     11.65146      2.46629        -0.237887      0.228330     -0.045268
O      13.68726     11.64469     15.01195        -0.248171      0.687934     -0.027446
O       1.91478     11.55982      6.68257        -0.143381      0.862426     -0.201249
O      13.70139     11.75083      6.70104        -0.302491     -0.672612      0.041773
O       1.89834     11.61277     10.68390         0.518128      0.274954      0.192162
O      13.49068     11.69307     10.73151        -0.001173      0.832856      0.409616
O       5.73423      3.95369      2.52948         0.567175     -0.837068     -0.460123
O       5.82591      3.89475     15.01696         0.024631     -0.896782     -0.010731
O       5.82260     15.53479      2.48744        -0.240782      1.056599     -0.124147
O       5.67736     15.52976     15.04314         1.014567      0.467380     -0.187632
O       5.68981      3.85703      6.64502        -0.075441     -0.194900      0.053070
O       5.81937     15.56341      6.57036        -0.270769      0.174344      0.290600
O       5.72500      3.87747     10.80201         0.490974      0.004225      0.015403
O       5.78333     15.54485     10.67080         0.073347      0.425455      0.407545
O       5.70168      7.78985      2.49992        -0.064693     -0.142569      0.272347
O       5.76305      7.75065     14.91529         0.211032      0.476860      0.275123
O       5.94348      7.78787      6.51385        -0.310329     -0.676869      0.356633
O       5.78453      7.77520     10.75231         0.098683     -0.527606      0.010548
O       5.90676     11.69813      2.66540        -0.340492     -0.949394     -0.163711
O       5.80234     11.66586     14.97278         0.106967     -0.279631     -0.274192
O       5.81718     11.65934      6.48446         0.053386     -0.687511      0.072783
O       5.85163     11.61827     10.74894        -0.020372     -0.241016     -0.028969
O       9.49250      3.85283      2.52415         0.652475      0.327692     -0.543363
O       9.89500      3.86508     15.11405        -0.625345      0.599108     -0.109358
O       9.73504     15.52136      2.44948        -0.080781      0.283892      0.249396
O       9.72886     15.59315     15.06256        -0.035801     -0.369420     -0.179224
O       9.67489      3.89720      6.84073        -0.142028     -0.379238     -0.598843
O       9.67989     15.55269      6.63437         0.293481      0.564555      0.083328
O       9.73885      3.81257     10.76235        -0.330363      0.095720      0.418569
O       9.71680      0.03434     10.96544        -0.523844     -0.703365     -0.245370
O       9.72254      7.75868      2.54380         0.345806     -0.252951     -0.255943
O       9.66826      7.82155     14.90743         0.277198     -0.225275      0.228652
O       9.72749      7.76089      6.61596        -0.300662     -0.589388     -0.013222
O       9.74617      7.73479     10.97037         0.205691     -0.299189     -0.408380
O       9.67566     11.64225      2.43987        -0.011026     -1.337080     -0.085580
O       9.63456     11.74251     15.11758         0.582223     -0.840179     -0.533280
O       9.67394     11.65616      6.57865         0.168013      0.486317      0.030224
O       9.70607     11.61813     10.75113         0.053763      1.404103      0.350231
