  # total energy = -7879.64231116 
CRSYTAL
PRIMVEC
    15.6080000000000005    0.0000000000000000    0.0000000000000000
     0.0000000000000000   15.6080000000000005    0.0000000000000000
     0.0000000000000000    0.0000000000000000   16.6239999999999988
PRESSURE
0.180975 -0.329445 -0.429122 0.044578 -0.318419 -0.076049
PRIMCOORD
320 1
Pb       3.99804      4.05562      4.23393        -0.246869     -0.040053     -0.160069
Pb       3.96641      4.02049     16.48550        -0.219924     -0.183689      0.647745
Pb       3.91049      0.10262      4.01143        -0.076201     -0.798360      0.476543
Pb       3.84291      0.03859     16.45322         0.515261     -0.733755      1.477983
Pb       0.14632      3.84595      4.20510        -0.688001      0.331190     -0.396588
Pb      15.58547      3.77252     16.61892        -0.357240      0.810235      0.544600
Pb      15.41198      0.03838      4.11468         0.284339     -0.034501     -0.313699
Pb      15.49063      0.02097     16.56021         0.126186     -0.233376      0.769038
Pb       3.79853      3.80923      8.23283        -0.162688      0.640235      0.054059
Pb       3.90941     15.51335      8.06103         0.057219      0.520645      0.711999
Pb      15.54071      3.87081      8.38107        -0.100929     -0.124629     -0.221397
Pb      15.58802     15.54074      8.23645        -0.629026      0.563929      0.247609
Pb       3.75702      3.86905     12.58220         0.122044      0.336041     -0.607783
Pb       3.91509     15.52428     12.53006        -0.009703      0.319203     -0.798802
Pb       0.00679      4.01037     12.62337        -0.445198     -0.551721     -0.220797
Pb       0.16848     15.55295     12.45332        -0.880743      0.312283      0.158426
Pb       3.86557      7.87838      4.05745        -0.190303      0.099368      0.779105
Pb       3.99204      7.73711     16.59845        -0.061969      0.773925     -0.115555
Pb       0.10596      7.81140      4.20250        -0.473772     -0.218935     -0.277801
Pb      15.50895      7.74867     16.59803        -0.139120     -0.039370     -0.202150
Pb       3.79067      7.72734      8.30831         0.177702      0.072323     -0.203353
Pb      15.35854      7.67602      8.49098         0.241283      0.030173     -0.556885
Pb       4.00242      7.80040     12.32597        -0.236365     -0.101501      0.761444
Pb      15.45523      7.78201     12.52148         0.128598     -0.098666      0.160076
Pb       3.80013     11.69393      4.01832         0.661006     -0.130544      0.527773
Pb       3.95045     11.63710     16.59924        -0.102095     -0.160701     -0.061660
Pb      15.56861     11.65402      4.10902        -0.073465      0.089119      0.207168
Pb      15.49383     11.73358     16.53372         0.355678      0.566934     -0.213855
Pb       3.86082     11.85367      8.24512         0.292661     -0.413429     -0.575415
Pb       0.14788     11.64532      8.14732        -0.723311      0.159128      1.148076
Pb       4.01305     11.52338     12.23291        -0.127986      0.056229      0.806742
Pb       0.16038     11.65671     12.43007        -0.182848      0.342821      0.252601
Pb       7.83385      3.69528      4.13027        -0.284171      0.692485      0.377247
Pb       7.98627      4.01518     16.57912        -0.450908     -0.368722      0.097232
Pb       7.84919     15.46794      4.13773        -0.455665     -0.207670      0.180592
Pb       7.83563      0.13813     16.54467        -0.331862     -0.327825      0.116321
Pb       7.59733      3.78982      8.49496         0.659359      0.552622     -0.744278
Pb       7.75077      0.05963      8.15715        -0.029170     -0.797289      0.286803
Pb       7.79728      3.55847     12.56082         0.310326      1.180200     -0.052393
Pb       7.71379     15.41746     12.42945         0.283654      0.461972      0.334850
Pb       7.96819      7.85489      4.22052        -0.766698     -0.391665     -0.227371
Pb       7.63444      7.77334     16.61736         0.874139      0.618884      0.090097
Pb       7.76112      7.81450      8.12475         0.190194     -0.421222      0.570898
Pb       7.79740      7.66344     12.38523         0.342974     -0.241028     -0.113969
Pb       7.87565     11.55831      4.15572        -0.041472      1.037263     -0.295581
Pb       7.75913     11.89056     16.53639         0.355192     -0.587186      0.277449
Pb       7.77145     11.68226      8.13828        -0.006913      0.537446      0.862326
Pb       7.84644     11.59914     12.32694        -0.136171     -0.070514      0.648376
Pb      11.76115      3.65704      4.22725         0.002273      0.653712     -0.106563
Pb      11.68867      4.10020      0.31562        -0.074194      0.081959     -0.821114
Pb      11.38370     15.41381      4.10511         0.788810      0.000218     -0.075911
Pb      11.72386     15.57684     16.51870        -0.362325     -0.170948      0.808559
Pb      11.66719      4.14702      8.41816         0.060950     -0.860469     -0.467742
Pb      11.76768      0.25243      8.43301         0.402772     -0.326915     -0.339427
Pb      11.83137      3.77880     12.51603        -0.632355      0.244440     -0.207938
Pb      11.55416     15.54589     12.38607         0.354430      0.031844      0.017113
Pb      11.57258      7.73422      4.17713         0.533507     -0.158668     -0.122695
Pb      11.70838      7.88223      0.04332        -0.454354     -0.175674     -0.233104
Pb      11.63854      7.79980      8.38138        -0.105087     -0.139296     -0.466297
Pb      11.49428      8.03077     12.50005         0.231428     -0.735431     -0.136105
Pb      11.86602     11.31362      4.14739        -0.497024      1.144624      0.352455
Pb      11.66520     11.61971     16.61527        -0.346184      0.795615     -0.122433
Pb      11.81309     11.90926      8.39776        -0.032469     -0.238118      0.318236
Pb      11.85238     11.79437     12.48193        -0.460854      0.209284     -0.278136
Ti       1.97558      1.95117      2.28722        -1.267070     -0.962635     -0.187024
Ti       1.88037      1.87811     14.83246        -0.799132      1.100258     -1.325974
Ti       1.85922     13.57258      2.19658        -0.045652      1.732480      0.248818
Ti       1.96893     13.63530     14.65109        -0.990597     -1.436130      0.545933
Ti      13.61867      1.94333      2.16616         0.573534     -0.299143      0.749338
Ti      13.51251      2.00108     14.72910         0.632085      0.508633     -0.114509
Ti      13.58954     13.59789      2.21544        -0.809857      0.732817     -0.972090
Ti      13.58322     13.76450     14.63753         0.634757     -1.127921      0.376273
Ti       1.84013      2.03650      6.43023        -0.037572     -0.442968      0.023094
Ti       1.80108     13.73929      6.26572         1.133319      0.111853     -0.513230
Ti      13.59753      1.96889      6.25675         0.557220     -0.689324      1.260481
Ti      13.63878     13.62356      6.31197        -0.707061      1.389473      0.411155
Ti       1.98664      1.99597     10.53545        -1.316659      0.064035     -0.771052
Ti       2.03883     13.71982     10.51558        -1.049475     -0.155410      0.536565
Ti      13.75045      1.85889     10.63288         0.004769      0.606040      0.273511
Ti      13.67346     13.65502     10.53765         0.013207      0.429671     -1.269271
Ti       1.89232      5.80228      2.10427        -0.252794      0.926301      1.375161
Ti       1.89389      5.86614     14.75166        -0.069801     -0.328802     -0.223104
Ti      13.67310      5.91377      2.23591        -0.224260     -0.775779      0.532801
Ti      13.56526      5.89070     14.78262         0.079728     -0.100622     -0.064688
Ti       1.87781      5.97166      6.37161         0.591169     -1.222753     -0.643914
Ti      13.62857      5.79877      6.27544        -0.273632      0.610082     -0.467468
Ti       1.88292      5.92852     10.66948        -0.069140     -0.568688     -0.968638
Ti      13.58556      5.80250     10.64171        -0.049963     -0.483986      0.896895
Ti       1.88339      9.72985      2.16546         0.074437     -0.170877      0.187642
Ti       1.87814      9.68536     14.74961         0.794812      1.035666     -0.053832
Ti      13.65994      9.71741      2.10751         0.002175     -0.231066      0.258717
Ti      13.63416      9.88285     14.61753        -0.433921     -0.656386     -0.380033
Ti       1.83718      9.72131      6.39080         1.678030     -0.242402     -0.349887
Ti      13.57580      9.78818      6.54616         0.145723     -1.806764     -0.470986
Ti       1.82290      9.70426     10.57258         0.756547     -0.433912     -0.861024
Ti      13.59319      9.70532     10.58764        -0.208052      0.680760     -0.580082
Ti       5.82749      1.94054      2.18738         0.349504      0.215068      1.061294
Ti       5.74742      1.95255     14.62721         1.937781     -0.025517      1.158477
Ti       5.80676     13.63442      2.14588         1.262457      0.236928      0.201825
Ti       5.80846     13.67834     14.57489         0.889594     -0.672332     -0.026485
Ti       5.79183      1.98177      6.32781        -0.009638     -1.519306      1.134367
Ti       5.83005     13.60020      6.34313         0.803922      1.134834      0.192318
Ti       5.75753      1.91350     10.48525        -0.373264     -0.575239      0.799063
Ti       5.89295     13.57981     10.50330        -0.592988      0.409035     -0.778491
Ti       5.78096      5.87817      2.31297         1.155278     -0.683151      0.630077
Ti       5.90213      5.80551     14.65512        -0.277448      0.816024     -1.706449
Ti       5.91827      5.80725      6.35483        -0.824158      0.747227     -0.158201
Ti       5.79097      5.76270     10.53134         0.925254     -0.191671     -0.655725
Ti       5.88001      9.69911      2.31754        -0.186576      0.778177     -1.498609
Ti       5.94365      9.78388     14.63810        -0.801121     -0.423149      0.104985
Ti       5.81025      9.74351      6.37651        -1.001415     -0.265607     -0.775891
Ti       5.89543      9.64487     10.35473        -0.271466     -0.050433      0.088124
Ti       9.76648      2.02456      2.22533        -0.215248     -1.632639     -1.335159
Ti       9.70339      1.94270     14.71901         0.016845      1.095453     -0.023245
Ti       9.67020     13.68816      2.07759         0.366170     -0.719197     -0.200219
Ti       9.73264     13.69384     14.64027        -0.003732     -0.808291      0.644108
Ti       9.72450      1.90470      6.44800         0.425939      0.414150      0.238384
Ti       9.82311     13.60264      6.47618        -1.703735      0.498100     -1.561931
Ti       9.67313      1.90125     10.54001         0.878293      0.434318     -0.824611
Ti       9.66962     13.61676     10.51182         1.120253     -0.184192     -0.847375
Ti       9.70021      5.80873      2.32133         0.653974      0.700971     -1.270956
Ti       9.75186      5.91506     14.64393         0.047137     -0.636597     -0.961372
Ti       9.73264      5.76575      6.36065         0.620456     -0.484342      0.396267
Ti       9.77305      5.77047     10.54936        -0.771070      0.172497      0.786189
Ti       9.69662      9.74589      2.22824         0.635812      0.329734     -2.804911
Ti       9.76253      9.76502     14.65528        -0.797546      0.133492      0.590729
Ti       9.76600      9.76867      6.40722        -0.029323     -0.467156      0.094662
Ti       9.69527      9.75128     10.42609         0.632189     -0.531847     -0.701034
O       1.87749      1.80714      0.53282         0.325985      0.590239     -1.140949
O       1.88139      1.87706     13.01339         0.158689      0.072091      0.911548
O       2.02681     13.60346      0.44999        -0.010503     -0.131104     -0.195354
O       1.86840     13.67653     12.87284         0.430078      0.099368     -0.260848
O      13.65753      1.71520      0.39324        -0.374270      0.632252     -0.234708
O      13.90542      2.09511     12.97050        -1.165087     -0.527864      0.439385
O      13.44352     13.40676      0.39222         0.834293      0.614309      0.546948
O      13.58814     13.69787     12.88329        -0.423885     -0.211191     -0.862696
O       1.77591      2.07174      4.65789         0.476326     -0.135166     -0.988781
O       1.77632     13.75087      4.50490         0.177778     -0.506725      0.357318
O      13.61853      1.94231      4.50612         0.061166      0.109926     -0.605070
O      13.74155     13.56462      4.53088        -0.496853     -0.291697      0.085119
O       1.88088      2.07477      8.71355         0.171745     -0.299249      0.685518
O       1.86870     13.79556      8.76504         0.339792     -0.756865     -0.250715
O      13.73856      1.92214      8.86692        -0.558689     -0.128730     -0.569063
O      13.54362     13.80392      8.66474        -0.024888     -0.632684      1.086123
O       2.00854      5.76096      0.35503        -0.140295      0.601130     -0.375473
O       1.88197      5.83335     12.96189         0.030815     -0.357087     -0.212841
O      13.58383      5.89306      0.44724         0.396820      0.075057     -0.365175
O      13.62278      5.79282     13.00718        -0.006821      0.080399     -0.454933
O       1.93416      5.93303      4.54365        -0.160834     -0.104599      0.901235
O      13.61727      5.86651      4.47055        -0.122805     -0.055539      0.420464
O       1.83574      5.91878      8.85401        -0.057670      0.188898      0.283876
O      13.62225      5.79643      8.87115         0.053594      0.060524     -0.609106
O       1.75217      9.84811      0.40951        -0.204667     -0.099907     -0.389398
O       1.80175      9.85681     12.98416         0.310752     -0.462921     -0.481826
O      13.63017      9.84403      0.30743        -0.007716     -0.169672      0.580474
O      13.65374      9.75888     12.75200        -0.402310      0.297520      0.722596
O       2.03601      9.73602      4.61152        -0.384113     -0.112103      0.074690
O      13.52514      9.72416      4.76563        -0.245775      0.288813     -0.604498
O       1.71377      9.51757      8.79694         0.533430      0.541684     -0.465068
O      13.65975      9.74047      8.78074         0.116338     -0.441565     -0.403466
O       5.92334      2.06256      0.48330        -0.452224     -0.261573     -1.498591
O       5.83339      1.89339     12.90733        -0.451300      0.293742     -1.212821
O       5.77564     13.66276      0.36779         0.054551     -0.142173     -0.325909
O       5.93032     13.49032     12.76547        -0.585311      0.533144      1.109960
O       5.82904      1.78257      4.63356        -0.190765      0.662190     -1.573736
O       6.05297     13.74954      4.63082        -0.160136     -0.521573     -1.061912
O       5.59980      1.89314      8.72328         0.909190      0.343530     -0.012066
O       5.76346     13.50489      8.70352        -0.107201      0.415297      0.561725
O       5.83383      5.77481      0.53442        -0.050182      0.425191     -0.694568
O       5.66114      5.82814     12.82035         0.730972      0.043887      1.118394
O       5.82207      5.88735      4.56474        -0.064415     -0.407476      0.498386
O       5.93961      5.74523      8.70036        -0.464271     -0.419949      0.403272
O       5.76609      9.55479      0.50882         0.393667      0.436296      0.203855
O       5.85921      9.65609     12.83329         0.076736      0.040766      0.499616
O       5.82371      9.72188      4.53636         0.066086      0.188288     -0.054733
O       6.00908      9.78226      8.57346        -0.310953     -0.469100      1.040022
O       9.73423      1.92173      0.37301        -0.271446      0.176567      0.981224
O       9.59168      2.07183     12.93645         0.239813     -0.773701     -0.571135
O       9.73156     13.71140      0.26664        -0.626782      0.024740      0.512998
O       9.72993     13.59738     12.85252        -0.107359     -0.059498     -0.186805
O       9.88660      1.95970      4.66374        -0.379197      0.106543     -0.579255
O       9.60448     13.71756      4.59831         0.375045     -0.411923      0.625972
O       9.74563      1.82077      8.67643        -0.079016      0.374106      1.310611
O       9.79633     13.51722      8.71700         0.078008      0.327298      0.295954
O       9.62395      5.73831      0.45501         0.203839      0.217858      0.506179
O       9.61730      5.74788     12.83729         0.659782      0.629726      0.896920
O       9.91317      5.65096      4.59874        -0.280094      0.752973     -0.999541
O       9.81644      5.76890      8.75059        -0.058554      0.042759     -0.045835
O       9.65034      9.65101      0.34911         0.711643      0.175518      1.297750
O       9.72573      9.71796     12.83169         0.111217      0.039704      0.231316
O       9.70657      9.51686      4.51847         0.485382      1.190285      0.600775
O       9.60549      9.66195      8.60422         0.177951     -0.143622      0.609499
O       3.82158      2.02622      2.59349         0.401291      0.025543     -0.123431
O       3.87808      1.93184     14.97228        -0.525307      0.382099      0.177890
O       4.04159     13.67637      2.63132        -2.154166     -0.301587      0.011934
O       3.91070     13.68093     14.93775        -0.261181      0.062626     -0.396678
O      15.50103      1.83133      2.53407         0.865509      0.426899      0.129634
O      15.57126      2.07292     15.12845         0.563469     -1.368220     -0.377816
O      15.54646     13.53616      2.39117         0.269366     -0.070289     -0.071933
O      15.52561     13.68493     14.94223         0.178337     -0.106616      0.278595
O       3.84066      1.91280      6.70063        -0.296160      0.262226     -0.419544
O       3.87219     13.71993      6.55801        -0.729229     -0.706030      0.140491
O      15.54757      1.87241      6.64767         0.004525      0.265017      0.294598
O      15.52102     13.67995      6.69734         0.903936     -0.474482     -0.118550
O       3.82012      1.85219     10.89238         0.742387     -0.017305      0.308511
O       3.88202     13.55267     10.80544         0.343936      0.296244      0.139009
O      15.58875      1.85890     10.82070         1.249380      0.017528      0.266626
O      15.55173     13.59086     10.82531         0.756625      0.063132     -0.079776
O       3.93159      5.98186      2.65061        -0.835412     -0.527126     -0.853890
O       3.83294      5.87592     14.93535         0.627902     -0.398496      0.421954
O       0.03787      5.87536      2.54781        -0.738556      0.420942     -0.467082
O      15.47200      5.75684     15.03218         1.121657      0.404363      0.285629
O       3.81305      5.80715      6.69131         0.339955     -0.262443      0.090481
O      15.51703      5.88038      6.64871         0.456664      0.266856      0.212652
O       3.80515      5.96998     10.86933         0.374179     -0.945230     -0.237236
O      15.55661      5.82623     10.93714        -0.066276      0.296103      0.188389
O       3.79779      9.80373      2.36735         0.584348     -0.398678      0.617170
O       3.81215      9.73544     15.14611        -0.009511     -0.020757     -0.543022
O      15.54162      9.73746      2.75754        -0.128576      0.347612     -1.057571
O      15.44892      9.85266     14.94597         1.067934     -0.167460      0.118082
O       3.93692      9.68858      6.71551        -0.384581      0.488002      0.356335
O       0.00131      9.64877      6.55358        -0.458387      0.284062      0.564592
O       3.92125      9.51842     10.62352         0.671034      0.958477      0.334709
O      15.58788      9.84923     10.76948        -0.852912     -0.233722      0.665590
O       7.76790      1.98279      2.58648         0.638416      0.208651     -0.386799
O       7.69350      1.97102     14.92906         0.526158      0.078654      0.335799
O       7.79063     13.73524      2.43030        -0.653570     -0.066915      0.013776
O       7.74928     13.63319     14.95148        -0.063870      0.196653     -0.183457
O       7.76653      1.90380      6.66763         0.002132      0.403541      0.158598
O       7.85289     13.73357      6.82398        -0.844208     -0.831650     -0.287562
O       7.69336      1.91243     10.78037         0.492778      0.257346     -0.179588
O       7.74638     13.55442     10.79955         0.786812      0.060712     -0.027755
O       7.89816      5.64119      2.70432        -0.995983      0.779044     -0.337638
O       7.82183      5.89027     14.87434        -1.146299     -0.136138      0.515207
O       7.80084      5.79174      6.65366        -0.478820      0.099172     -0.100615
O       7.78693      5.86728     10.76383        -0.333477     -0.591004      0.038582
O       7.88363      9.69151      2.46600        -1.855317     -0.021770      0.817601
O       7.74701      9.75676     15.05382        -0.238488     -0.017808     -0.495955
O       7.78748      9.91038      6.51814        -0.214164     -1.353848     -0.016340
O       7.85247      9.55925     10.79377        -1.340073      0.137389     -0.094709
O      11.72303      1.93878      2.52279        -0.998096     -0.130120     -0.185105
O      11.61393      1.91974     14.92672         0.621986     -0.395473     -0.234323
O      11.57236     13.78935      2.27845         0.461927     -0.766340      0.991699
O      11.63253     13.58819     15.04049         0.105438      0.848858     -0.733548
O      11.77154      1.91356      6.66061        -1.304293      0.096867      0.325786
O      11.65410     13.55439      6.56883         1.270011     -0.265279      0.189693
O      11.61656      1.83239     10.90864        -0.052725     -0.080991     -0.094342
O      11.61232     13.76139     10.85406         0.165295     -0.658340      0.030005
O      11.69167      5.85595      2.28267         0.355782     -0.087628      0.830274
O      11.65733      5.96903     15.05567        -0.299610     -0.149394      0.191121
O      11.71141      5.72665      6.68229        -0.027808      0.318023      0.297152
O      11.70644      5.69186     10.86150        -0.051125      0.239866      0.059633
O      11.69930      9.68363      2.57720         0.273232      0.118985     -0.492398
O      11.64739      9.65282     14.93057         0.419475      0.229573     -0.105166
O      11.62003      9.78612      6.80305         0.497712      0.138448     -0.298814
O      11.62634      9.63011     10.69127         0.499523      0.481037      0.358267
O       1.79904      3.99753      2.46766         0.716308     -1.500121      0.250312
O       1.85461      3.92200     15.12868         0.766535     -0.890652     -0.546914
O       1.91324     15.59888      2.55262         0.274490     -0.037436      0.062732
O       1.91872     15.53703     15.13593        -0.158641      0.992681     -0.722455
O      13.69825      3.84128      2.45647        -0.420928      0.474574     -0.316108
O      13.51976      3.85181     15.18027        -0.056261      0.486448     -0.174217
O      13.58114     15.47456      2.49660         0.409912      0.119438      0.039581
O      13.65770      0.01158     14.99490        -0.470210      0.220961     -0.127961
O       1.76400      3.94332      6.71626         0.465192     -0.132060     -0.034952
O       1.91010     15.59941      6.70291        -0.260547     -0.064950     -0.314251
O      13.61079      3.87117      6.69400         0.496576      0.219263     -0.236920
O      13.63012     15.57870      6.57931        -0.012341     -0.316781      0.042882
O       1.90044      3.86771     10.90838         0.355253      0.178785      0.294573
O       1.96319      0.01612     10.96475         0.169289     -0.850551     -0.534351
O      13.67771      3.85404     10.99868        -0.049455      0.196938     -0.372698
O      13.64421     15.55942     10.85900        -0.208337      0.267854      0.375323
O       1.81329      7.85187      2.46475         0.498922     -0.247914     -0.062860
O       1.85236      7.78965     14.94784        -0.518022      0.157070      0.454624
O      13.65063      7.85307      2.41694         0.111203     -0.442911      0.089188
O      13.69206      7.85472     15.04601        -0.159433     -0.263482     -0.161032
O       2.07312      7.79406      6.67739        -0.824814      0.340237     -0.125850
O      13.53364      7.75418      6.69592         0.109514      0.108502      0.592344
O       1.84409      7.81072     11.05364        -0.263213      0.058583     -0.159683
O      13.63073      7.79967     10.86408         0.304945     -0.290905     -0.075038
O       1.93264     11.69981      2.61152        -0.176832      0.045607     -0.250996
O       1.81434     11.75762     14.93863         0.425648      0.024804      0.313026
O      13.57408     11.58856      2.54900         0.018675      0.524767      0.211255
O      13.46238     11.77112     14.82920         0.319542     -1.143824      0.105309
O       1.93075     11.70929      6.63721        -0.028166      0.127172      0.161133
O      13.70436     11.65076      6.77192        -0.111405      0.842057     -0.113466
O       2.07177     11.59078     10.90737        -0.530664      0.881955     -0.638346
O      13.49762     11.74289     10.66543        -0.197148     -0.276134      0.664216
O       5.76393      3.91645      2.62979         0.009007      0.064291      0.263467
O       5.92173      3.97667     14.98738        -0.893226     -0.802007     -0.181840
O       5.80976      0.03957      2.45135        -0.160932      0.082351     -0.000396
O       5.87589      0.02057     14.87343        -0.549192     -0.390815      0.091594
O       5.71640      3.84454      6.59911         0.516879      0.604599      0.142765
O       5.84974     15.54987      6.68150        -0.202393      0.700531      0.390393
O       5.71598      3.77167     10.86178        -0.022529      0.659841     -0.350156
O       5.92154     15.49307     10.99190        -1.093463      0.466810     -0.864750
O       5.98364      7.81768      2.60466        -0.269348     -0.831510     -0.080062
O       5.79941      7.76992     15.10154         0.139930     -0.105950     -0.590083
O       5.82065      7.76033      6.62632         0.493292      0.027458      0.242857
O       5.80268      7.63831     10.69698         0.431257      1.704241      0.107768
O       5.83956     11.66543      2.42556         0.314064     -0.078001      0.422775
O       5.84824     11.69027     14.91287        -0.432663     -0.029848      0.255908
O       5.77223     11.72919      6.64556         0.064559     -0.697270     -0.034586
O       5.93315     11.63734     10.79152        -0.491774     -1.312463     -0.356737
O       9.84918      3.85685      2.55075        -0.145943     -0.166157     -0.047681
O       9.75142      3.90171     14.98702        -0.229395      0.271554      0.240319
O       9.66301      0.03671      2.51320         0.160514      0.359818     -0.066514
O       9.66433      0.00126     14.84240         0.065841     -0.097527      0.360843
O       9.68246      3.91403      6.75666         0.163069     -1.333205      0.131172
O       9.72022     15.53949      6.62348         0.378589      1.012817      0.499833
O       9.78574      3.82248     10.93840        -0.611861     -0.555836     -0.908558
O       9.59773     15.51992     10.84849         0.085974      0.793892      0.057946
O       9.79894      7.82721      2.44405        -0.413332     -1.530198      0.713834
O       9.62025      7.84131     14.85273         0.354382     -0.620346      0.220590
O       9.82422      7.70920      6.59145        -0.554458      0.680979      0.263247
O       9.86810      7.71027     10.79608        -0.488308      0.219479      0.196601
O       9.56950     11.72645      2.38337         0.743422     -0.321786      0.342514
O       9.76046     11.68187     14.99185        -0.370961      0.029479     -0.207185
O       9.62080     11.61586      6.72232         0.931247      0.737378     -0.846444
O       9.68461     11.62439     10.81675         0.249493      0.240743     -0.319308
