  # total energy = -7881.55609549 
CRSYTAL
PRIMVEC
    15.6080000000000005    0.0000000000000000    0.0000000000000000
     0.0000000000000000   15.6080000000000005    0.0000000000000000
     0.0000000000000000    0.0000000000000000   16.6239999999999988
PRESSURE
-0.193134 -0.317966 0.437758 -0.098813 -0.014469 -0.022479
PRIMCOORD
320 1
Pb       3.81739      3.80298      4.06678         0.261596     -0.006868      0.909324
Pb       3.76891      3.77011      0.03975        -0.013246     -0.223129     -0.489569
Pb       3.90754     15.48981      4.24957         0.407184     -0.029275     -0.391983
Pb       3.92690     15.54279      0.08513        -0.220330      0.395371     -0.637408
Pb      15.50137      3.82888      4.14960         0.075048      0.408904     -0.237403
Pb      15.54921      3.92087     16.56014         0.522269      0.214791      0.063411
Pb       0.12194      0.01115      4.20549        -0.690935     -0.323772      0.123514
Pb       0.04118     15.54536      0.00400         0.187937      0.313248      0.248494
Pb       3.99204      4.01085      8.34318        -0.884581     -0.029122      0.030405
Pb       3.90291      0.13652      8.49166         0.201380     -0.254582     -0.387388
Pb       0.05869      3.91709      8.22552         0.069902      0.115564     -0.083487
Pb       0.08672      0.07329      8.29450        -0.980819     -0.053011      0.367941
Pb       3.88938      3.98801     12.37270        -0.522404     -0.145621      0.654512
Pb       3.86333     15.58314     12.32444         0.078744      0.053040      0.503107
Pb      15.52669      3.74249     12.22664         0.100526      0.221095      1.006308
Pb      15.47038     15.59936     12.37918         0.185837     -0.424485     -0.177765
Pb       3.85434      7.73005      4.22196        -0.156110      0.180850     -0.460457
Pb       3.79447      7.81112     16.59954        -0.085685     -0.055104     -0.236540
Pb      15.56378      7.80275      4.06493        -0.085189      0.347995     -0.298807
Pb       0.01761      7.79781      0.01382        -0.145452      0.013682     -0.154428
Pb       4.03569      7.83227      8.23242        -0.957626      0.323248      0.751452
Pb       0.08659      7.84983      8.13890        -0.357904      0.044803      1.105097
Pb       3.76285      7.85829     12.52812         0.227053     -0.059087     -0.219841
Pb      15.60448      7.75900     12.40451        -0.038831     -0.080393      0.012177
Pb       3.97366     11.65768      4.23735         0.141993      0.414987     -0.181044
Pb       3.89529     11.65980     16.52564        -0.046537     -0.019035      0.567333
Pb       0.05726     11.79265      4.19270        -0.313716     -0.449145     -0.148777
Pb       0.05772     11.74163      0.05873        -0.093315     -0.461373     -0.053801
Pb       3.89243     11.55857      8.25338        -0.304082      0.185287      0.534557
Pb      15.46113     11.72214      8.33856         0.274805     -0.114236     -0.372750
Pb       3.77431     11.81071     12.57165        -0.128369     -0.303377     -0.410908
Pb      15.46071     11.58553     12.37888         0.122219      0.591853      0.275406
Pb       7.75847      3.98928      4.10203         0.279660     -0.191858     -0.187179
Pb       7.63719      3.67223      0.03984         0.195476      0.608633      0.042358
Pb       7.74182      0.01290      4.08665         0.166661     -0.269111      0.105357
Pb       7.78958     15.40624     16.62256        -0.269153     -0.044751     -0.224239
Pb       7.78244      3.97182      8.20452         0.665793     -0.081126      0.646669
Pb       7.77708     15.53489      8.44287        -0.032958     -0.067979     -0.242621
Pb       7.75389      4.12117     12.45756         0.499133     -0.726194      0.395680
Pb       7.86205      0.13226     12.48498        -0.347786     -0.697970      0.216606
Pb       7.61006      7.78893      3.97698         1.136219     -0.150649      0.764149
Pb       7.91841      7.79578     16.55063        -0.177734     -0.383598      0.709613
Pb       7.79065      7.80522      8.43907         0.002002      0.120652     -0.347544
Pb       7.79159      7.84567     12.56661        -0.027672      0.044586     -0.064000
Pb       7.72429     11.74669      4.08092         0.413745     -0.502294     -0.027526
Pb       7.83420     11.50613     16.62318         0.379589      0.683753      0.216316
Pb       7.61586     11.62987      8.37747         0.724775     -0.069012     -0.197806
Pb       7.70754     11.67505     12.53733         0.503908     -0.200787     -0.264610
Pb      11.62028      4.03411      4.14020         0.538394     -0.269267     -0.114081
Pb      11.71445      3.75153     16.41088         0.001502      0.567022      1.033993
Pb      11.87763      0.23161      4.21254        -0.198682     -0.645071     -0.187543
Pb      11.71947     15.55060      0.03970         0.163281      0.404172      0.010798
Pb      11.68244      3.75178      8.17422         0.046819      0.463659      0.004274
Pb      11.60112     15.41440      8.22241         0.611190      0.155679     -0.082114
Pb      11.59284      3.89466     12.40943         0.200284     -0.394033      0.135960
Pb      11.87940     15.55403     12.46788        -0.199387      0.238775      0.124487
Pb      11.71440      7.79642      4.04266         0.006123      0.393048      0.195716
Pb      11.64763      7.72482     16.56227         0.146912      0.353079      0.338510
Pb      11.71654      7.83556      8.09885        -0.065294     -0.687195      0.333535
Pb      11.83024      7.58718     12.44751        -0.461495      0.484953     -0.074399
Pb      11.52791     11.98483      4.22153         0.222413     -0.968748     -0.093211
Pb      11.83818     11.79164     16.61380        -0.601145     -0.482459      0.191212
Pb      11.65219     11.55848      8.13558        -0.098640      1.061465      0.711539
Pb      11.57664     11.58291     12.40307         0.216727      0.245404      0.041292
Ti       1.92852      1.79562      2.34452         0.330360      1.093209     -1.856916
Ti       1.92944      1.85408     14.67756         0.967431      0.032749      1.022911
Ti       1.97704     13.57788      2.29755         0.811669     -0.453256     -0.336634
Ti       1.96437     13.55425     14.67002        -0.239966      1.751325     -1.076895
Ti      13.69365      1.95001      2.15645        -0.354529     -0.080238      0.797786
Ti      13.77175      1.95841     14.73859        -1.306213     -0.190297     -0.432029
Ti      13.63532     13.61263      2.31873         0.115200      0.616372     -0.298188
Ti      13.71050     13.70261     14.74795        -0.131773      0.037123     -1.488043
Ti       1.99605      2.03553      6.42650        -0.077300      0.302870     -0.073543
Ti       2.00220     13.69111      6.50226        -0.281997     -0.794543     -0.541814
Ti      13.69433      1.96811      6.34456         0.103229     -0.489476      0.541101
Ti      13.71594     13.61847      6.31753        -1.105259      0.620674      0.020588
Ti       1.93256      1.98786     10.48311         0.099946      0.077566     -0.208183
Ti       1.92467     13.68973     10.52156        -0.646855     -0.795807      0.174964
Ti      13.53289      1.91578     10.38711         0.448833     -0.439418     -0.321506
Ti      13.56392     13.60356     10.49862         0.680846      0.389850     -0.071095
Ti       1.92882      5.78346      2.27685        -0.200950      0.228526     -0.689080
Ti       1.93803      5.78520     14.69474        -1.045951     -0.689398      0.109681
Ti      13.67792      5.90703      2.07892         0.132869     -0.690113      0.915990
Ti      13.62085      5.96614     14.61615         0.162468     -1.330339      1.063268
Ti       1.97555      6.00969      6.29400        -0.266041     -1.467427     -0.129523
Ti      13.74949      5.86307      6.35372        -1.249520     -0.284272     -0.512007
Ti       1.86615      5.91483     10.51014         0.892641      0.197101     -0.764902
Ti      13.67374      5.73551     10.37058        -0.117324      0.558160      1.029506
Ti       2.08271      9.76626      2.28193        -1.420247      0.242494     -0.568357
Ti       1.89332      9.73300     14.63998         0.020666      0.969488      0.111689
Ti      13.62994      9.80329      2.22497         0.379317      0.265792      0.078193
Ti      13.61093      9.81976     14.66789         0.328941     -0.150946      0.161009
Ti       1.83846      9.82082      6.30858         0.976611      0.114926      0.621220
Ti      13.59706      9.73412      6.31356         0.786036      0.077659     -0.164002
Ti       1.87650      9.78977     10.56752         0.696053     -0.429404      0.203733
Ti      13.57915      9.61191     10.46612         0.675005      0.248832      0.078939
Ti       5.87695      1.88378      2.28466        -0.424496     -0.569204      0.035025
Ti       5.77975      1.92289     14.62492        -0.935891     -0.213097      0.473956
Ti       5.90272     13.52124      2.15368        -0.687353      0.461030      0.508118
Ti       5.81976     13.61108     14.65940         0.670547      0.623473      0.230707
Ti       5.89492      1.99238      6.44039        -0.584909     -1.052366     -0.890894
Ti       5.82598     13.64147      6.53938         0.208261     -0.187318     -1.062850
Ti       5.89936      1.96320     10.59813        -0.504897     -0.250426      0.236070
Ti       5.84193     13.52047     10.62347        -0.071334      0.607894     -0.540255
Ti       5.79475      5.80234      2.24261         0.147085     -0.421576      1.352964
Ti       5.73433      5.82776     14.71955         0.237255     -0.332957     -1.213208
Ti       5.81331      5.80657      6.38674         0.193941      1.609942     -1.498953
Ti       5.84578      5.84958     10.60924        -0.305189      0.635769     -0.137850
Ti       5.81194      9.63384      2.14619         0.771272      1.591935      0.964642
Ti       5.81297      9.69770     14.72146        -0.399369     -0.194226     -0.720953
Ti       5.82590      9.69322      6.27751         0.310683      0.569128      0.612193
Ti       5.77929      9.66853     10.63194        -0.182404      0.585788      1.407509
Ti       9.82100      1.91193      2.18505        -0.339258     -0.101569      0.358076
Ti       9.65809      1.89087     14.72400         0.627337      0.316344     -0.389693
Ti       9.75389     13.72035      2.19773        -0.606676     -0.882638     -0.063818
Ti       9.78084     13.66165     14.64328        -0.723452     -0.754973      1.259711
Ti       9.70439      1.87669      6.29675         0.727015      0.264703      0.543206
Ti       9.64198     13.61952      6.33244         0.867110     -0.820610      0.348273
Ti       9.72834      1.86008     10.50495         0.799062      0.843079      0.702931
Ti       9.73094     13.67143     10.54323        -0.092368     -1.273104      0.679794
Ti       9.83682      5.81049      2.20511        -1.245212      0.670329     -0.455442
Ti       9.64970      5.74498     14.73026         0.344013      0.500455      0.046372
Ti       9.69807      5.82486      6.30088         1.088292      0.034108      0.607139
Ti       9.82430      5.83848     10.49639        -0.636557     -0.746427      0.347560
Ti       9.75284      9.72690      2.24799        -0.149432      1.156253     -0.022834
Ti       9.75620      9.69624     14.75933         0.709126      0.783231     -0.627411
Ti       9.68410      9.68405      6.26575        -0.369210      1.279861     -0.455519
Ti       9.75520      9.62702     10.59941        -0.843555      0.718310      1.126052
O       2.04756      1.81011      0.50130        -0.133336      0.378963      1.140958
O       1.96866      1.97342     12.94754        -0.173261     -0.337790     -1.629262
O       2.04526     13.39040      0.50814        -0.130992      0.604807      0.205433
O       1.85310     13.65159     12.86073         0.250951      0.026807      0.395191
O      13.55417      1.84947      0.42296         0.593698      0.158324     -1.042999
O      13.58148      1.94276     12.95383         0.448606     -0.163067      0.265171
O      13.62702     13.61764      0.49524         0.053210     -0.003516     -0.202310
O      13.74034     13.79434     12.88136        -0.112394     -0.025623      1.411321
O       1.90896      1.76539      4.64184         0.084954      0.278539      0.146313
O       2.04800     13.75521      4.68445        -0.627830     -0.274857     -0.021683
O      13.82136      2.03697      4.53053        -0.778194     -0.395909      0.694263
O      13.75694     13.58825      4.50984        -0.550629     -0.094733      0.477601
O       1.88074      1.92465      8.68499         0.178696      0.254698      0.250771
O       1.90840     13.54108      8.74932        -0.130309      0.268212     -0.464003
O      13.65302      1.93320      8.62025        -0.149102     -0.116989     -0.204248
O      13.51956     13.69037      8.70277         0.205105     -0.431737      0.033073
O       1.89651      5.87168      0.41258         0.200502     -0.121058      1.186917
O       1.85560      5.82643     12.92715         0.367513      0.155399      0.069636
O      13.70630      5.99234      0.33305        -0.000929     -0.244472     -0.052089
O      13.42615      5.79408     12.84086         0.788208      0.092798      0.238980
O       1.98703      5.85971      4.49059         0.049412      0.570917      0.661217
O      13.74861      5.88062      4.55504        -0.388688     -0.191580      0.230824
O       1.83995      5.98893      8.72442        -0.147550     -0.246130     -0.130861
O      13.78961      5.86380      8.65598        -0.147373     -0.296795     -0.563050
O       1.94325      9.93468      0.44998         0.274525     -0.354939      0.618434
O       2.11225      9.82048     12.87349        -0.616890     -0.479030     -0.159106
O      13.68338      9.83000      0.44602         0.087741      0.035895     -0.559752
O      13.68376      9.68168     12.90807        -0.516298      0.064016     -0.289663
O       2.00037      9.82813      4.56373        -0.206081     -0.398150     -0.551292
O      13.66562      9.64626      4.55627        -0.002728      0.027769     -0.043634
O       1.95005      9.68728      8.82037        -0.261675      0.188187     -0.685149
O      13.66676      9.69025      8.68968        -0.183263      0.157052      0.365607
O       5.69725      1.84804      0.51145         0.294649      0.363321      0.214585
O       5.75170      1.93685     12.85368         0.111420     -0.381195     -0.353288
O       5.82204     13.60099      0.38381         0.042724      0.244973     -0.059621
O       5.87194     13.62068     12.88939        -0.002238     -0.190541     -0.417690
O       5.96798      1.77862      4.66240        -0.350709      0.661901      0.932549
O       6.01254     13.46855      4.72545        -0.540614      0.836458      1.365989
O       5.87255      2.07747      8.82644         0.128900     -0.207228     -0.648366
O       5.64535     13.47084      8.82468         0.779034      0.156533     -0.706049
O       5.80807      5.69503      0.55371        -0.125333      0.212593     -1.940604
O       5.64023      5.86661     12.86460         0.435248     -0.322192      0.465118
O       5.78846      5.85619      4.58233         0.044434      0.195177      0.404053
O       5.88632      5.63260      8.76967         0.084226      0.864087      0.548481
O       5.93299      9.71819      0.39783        -0.586549     -0.474299     -0.708984
O       5.86517      9.56370     12.90743        -0.225370      0.664287      1.267641
O       5.74466      9.83839      4.53091         0.197322     -0.712337      0.274885
O       5.79416      9.64504      8.87216         0.584672      0.306636     -0.976805
O       9.79602      1.96100      0.42231        -0.318410     -0.200079     -0.305000
O       9.68852      1.97520     12.91680        -0.047374     -0.104629      1.109290
O       9.79474     13.89406      0.43823        -0.102775     -0.458225     -0.420901
O       9.68011     13.56899     12.90499         0.213675      0.157806     -0.272454
O       9.87232      1.93883      4.55166        -0.347032      0.423136     -0.211797
O       9.56288     13.32180      4.55781         0.215818      0.959829      0.459672
O       9.81606      1.80216      8.76587        -0.348700     -0.008555     -1.083857
O       9.86969     13.71403      8.78179        -0.281510      0.249659     -0.119147
O       9.66626      5.92363      0.45350         0.462042      0.073549     -0.369574
O       9.78386      5.61783     12.93368         0.068799      0.345406      0.225458
O       9.84093      5.71226      4.54883        -0.016053      0.133779     -0.345842
O       9.59263      5.82737      8.74171         0.107220      0.460592     -0.455885
O       9.63273      9.61822      0.45760        -0.006245      0.015195     -0.453399
O       9.72030      9.70866     12.94813         0.424963      0.141333      0.760557
O       9.73187      9.95637      4.53435         0.198507     -0.332483     -0.017451
O       9.55574      9.45811      8.86582         0.377731      0.258398     -0.801379
O       3.86581      1.83570      2.70106         0.537690      0.347949     -0.268896
O       3.86476      1.92729     15.03936         0.307785     -0.308650      0.070794
O       4.01313     13.61382      2.62319        -0.751969      0.596295      0.088274
O       3.89562     13.67199     14.79157         0.225985     -0.381719      0.640087
O      15.55124      1.83383      2.51756         1.166556      0.221482      0.065969
O       0.04643      1.90067     15.04482        -0.981608     -0.257043      0.126134
O       0.05667     13.52943      2.58550         0.545842      0.089710     -0.352510
O       0.01961     13.74642     15.14174        -0.086790     -0.920084     -0.379499
O       3.88088      1.94034      6.75443         0.834175     -0.404775      0.144848
O       3.86043     13.65093      6.65937         0.934019     -0.148366      0.377634
O       0.07312      2.05349      6.68048        -0.382855     -0.147965      0.095953
O      15.47788     13.45164      6.61645         2.037682      0.123846      0.519510
O       3.89404      1.93335     10.68679        -0.189547     -0.038281      0.360622
O       3.82499     13.49654     10.80392        -0.226849      0.644429      0.695350
O      15.48485      1.88325     10.71009         1.185852      0.568532      0.364889
O      15.57457     13.71412     10.82711         0.107913     -0.207566     -0.301553
O       3.87934      5.66326      2.60594        -0.025317      0.638524     -0.548486
O       3.81926      5.67097     15.01066        -0.164413      1.022569      0.303926
O       0.03967      5.85217      2.54894        -0.161835     -0.032862     -0.390405
O      15.57751      5.84264     15.04248        -0.021848      0.316171     -0.310077
O       3.84034      5.94408      6.70807         0.760950      0.463317     -0.049243
O       0.01809      5.77914      6.55240         0.677766      0.410730      0.308345
O       3.79273      5.97901     10.68803         1.583117     -0.595707      0.534785
O      15.59512      5.72203     10.92425        -1.209882      0.415164     -0.450043
O       3.94150      9.73129      2.61477        -0.174141     -0.170151     -0.458339
O       3.84466      9.61803     15.02830         1.062689      0.606465      0.162114
O      15.57789      9.71374      2.48928         0.704706      0.442645      0.374492
O       0.03156      9.98385     14.82110        -0.734297     -0.478191      0.615035
O       3.88322      9.67062      6.69666         0.365844      0.112441     -0.185950
O      15.59684      9.73255      6.70239        -0.681656      0.327829     -0.300259
O       3.86678      9.55436     10.86023         0.469293      0.636989     -0.076076
O      15.52552      9.64362     10.87635         0.120734      0.370318     -0.036413
O       7.85822      2.07710      2.49425        -0.329412     -0.511598      0.039118
O       7.61689      1.97958     15.06733         1.629059     -0.070445     -0.171130
O       7.80915     13.75951      2.58845        -0.908411     -0.428967     -0.614675
O       7.83546     13.54280     15.07236        -0.042835      0.279531     -0.241784
O       7.79527      1.98764      6.71084        -0.249508      0.023002      0.025925
O       7.83966     13.64923      6.93206        -1.289974     -0.163940      0.004324
O       7.83183      1.90423     10.88696        -1.137570      0.047852     -0.257871
O       7.76610     13.60867     10.75614         0.267648     -0.238532     -0.036287
O       7.89513      5.90192      2.52278        -1.317313     -0.387163      0.422695
O       7.73060      5.84463     14.90063        -0.147643     -0.005476      0.104986
O       7.77906      5.72896      6.49603        -0.029362      0.209127      0.617608
O       7.79324      5.86369     10.92024        -0.596941     -0.412757     -0.270872
O       7.73954      9.62356      2.60692        -0.882652      0.350759     -0.593274
O       7.81948      9.65904     15.05541        -0.668557     -0.014167     -0.515378
O       7.82292      9.83126      6.56491        -0.759608     -0.622401      0.511067
O       7.82129      9.72531     11.05693         0.202357      0.087616     -0.684752
O      11.76018      1.81590      2.52559        -0.415322      0.320217      0.098391
O      11.69758      1.89095     15.06776        -0.751906      0.257073     -0.642026
O      11.62477     13.73132      2.59147         0.661386     -0.424465      0.142588
O      11.70907     13.81592     15.01824        -0.226101     -0.648687     -0.281390
O      11.75471      1.85019      6.62623        -0.114612      0.376297     -0.276720
O      11.58689     13.59502      6.57593         0.835628      0.256413     -0.081641
O      11.69300      1.74224     10.80015        -0.993495      0.535043      0.140806
O      11.71364     13.63809     10.91602        -0.798413      0.381512      0.053863
O      11.74332      5.97232      2.53351         0.234520     -0.380514     -0.286549
O      11.68929      5.83797     15.00439         0.156781     -0.064718     -0.064324
O      11.70614      5.82877      6.67256        -0.207671     -0.224148      0.066084
O      11.71929      5.78839     10.74561        -0.391520      0.202422     -0.111095
O      11.66607      9.80385      2.46686         0.390619     -0.242688      0.179037
O      11.70136      9.83570     15.10222         0.253673     -0.589446     -0.370242
O      11.72277      9.79099      6.61742        -0.931077     -0.779131      0.154312
O      11.74682      9.68917     10.82360        -1.124862     -0.047196      0.092512
O       1.90860      3.79342      2.72656        -0.124286      0.570536     -0.934000
O       1.85997      3.81592     14.99641         0.177340      0.776979      0.416071
O       1.96230     15.55524      2.52962        -0.008379     -1.193980      0.247215
O       2.00300     15.53293     15.10138        -0.266764      0.076364     -0.065193
O      13.66118      3.87583      2.35694         0.092377      0.494223      0.324014
O      13.73240      3.92518     15.08219        -0.318236     -0.596546     -0.491182
O      13.72581     15.50171      2.55827        -0.205633      0.684230      0.223895
O      13.66275     15.60272     15.04265         0.360179      0.314919      0.064871
O       2.11854      3.99438      6.65852        -0.721623     -0.805664     -0.029427
O       1.83652     15.52860      6.81695         0.458272      0.648871     -0.280484
O      13.71486      3.90499      6.74416        -0.368026     -0.321767     -0.490503
O      13.85736     15.57363      6.55381        -0.575356      0.393838     -0.077201
O       1.95393      3.93021     10.80878        -0.214246     -0.718734     -0.162963
O       1.97492      0.07428     10.70046        -0.008765     -0.897736      0.316280
O      13.46872      3.82353     10.70661         0.641345      0.456614      0.161776
O      13.62143      0.00979     10.78423         0.018018     -0.546010      0.390333
O       2.03657      7.86301      2.49661         0.050408     -1.119066      0.129342
O       1.86444      7.90819     14.97913         0.119358     -1.762501      0.199265
O      13.73354      7.76213      2.44233        -0.304947      0.497915      0.292496
O      13.67606      7.82869     14.94895        -0.047828      0.282522     -0.122455
O       1.86830      7.90123      6.59979         0.318944     -1.290804     -0.175093
O      13.60476      7.76618      6.69950         0.370702      0.298702     -0.334273
O       1.90329      7.80774     10.92141        -0.845689     -0.318603      0.323717
O      13.58814      7.70228     10.71831         0.261630      0.053223      0.454052
O       2.18312     11.67961      2.73027        -1.149200      0.490824     -0.483632
O       2.07547     11.72481     14.93062        -0.238623     -0.376501      0.127201
O      13.65211     11.70984      2.57879        -0.081251     -0.207371     -0.037774
O      13.59462     11.75619     14.94599         0.090803      0.280737      0.099107
O       1.90524     11.64133      6.71411         0.200395      0.978298      0.149372
O      13.59375     11.64031      6.68897         0.050323      0.184976     -0.081521
O       1.86220     11.65086     10.92175         0.043720      0.429898     -0.382690
O      13.57673     11.73074     10.94102         0.357513     -0.782006     -0.708776
O       5.90446      3.81880      2.67474        -0.442021      0.489889     -0.417421
O       5.68198      3.87471     14.94342         0.672044     -0.194076      0.425136
O       5.83785     15.55346      2.64397         0.347369      0.529177     -0.353402
O       5.90888     15.51619     14.98033        -0.338006      0.579727      0.033548
O       5.67236      4.01315      6.62287         0.591042     -2.454376      0.239902
O       5.85417     15.58573      6.91162         0.029080      0.123579     -0.285683
O       5.78668      3.88319     10.99244         0.356776      0.413825     -0.740514
O       5.77493     15.45608     10.86898         0.170565      1.663354     -0.355184
O       5.70660      7.78731      2.55205         0.086720     -1.308598     -0.202578
O       5.70006      7.71082     14.95282         0.181857      0.237389      0.729276
O       5.90381      7.81483      6.77871         0.122145     -0.371837     -0.439940
O       6.03831      7.83525     10.94383        -0.691216     -1.826241     -0.794746
O       5.75840     11.64950      2.39896         0.682997      0.007513      0.263259
O       5.82834     11.62852     14.98621        -0.058694     -0.345934     -0.381181
O       5.83920     11.60087      6.80133        -0.145514      0.551267     -0.057383
O       5.81412     11.66680     11.00961         0.112959     -0.951835     -0.172279
O       9.89576      3.94252      2.47836        -0.051848     -0.642466      0.149615
O       9.61805      3.93936     15.17907         0.309475     -1.225885     -0.463113
O       9.66652     15.60774      2.54195         0.221500      0.942465      0.268449
O       9.59075      0.04151     14.96252         0.090220     -0.356166     -0.239391
O       9.76003      3.86387      6.72350         0.081907     -0.253255     -0.266466
O       9.73220     15.57991      6.46323        -0.254202      0.009583      0.630023
O       9.74155      3.84291     10.83691         0.065551      0.121231     -0.320231
O       9.61519     15.54334     10.88031         0.372504      0.298760      0.045580
O       9.72507      7.91289      2.56459         0.375518     -1.967947      0.556570
O       9.82409      7.75679     15.08527        -0.452587      0.004196     -0.575501
O       9.81315      7.79427      6.43916        -0.343185     -0.413573      0.598555
O       9.72019      7.68019     11.04738         0.358548      0.478831     -0.636604
O       9.50662     11.72105      2.37411         0.729423      0.268280     -0.058575
O       9.75697     11.64502     15.21838         0.234557      0.610578     -0.911524
O       9.77537     11.68436      6.80933        -0.480509     -0.408661     -0.178466
O       9.76356     11.65997     10.90038         0.069881     -0.299313     -0.385130
