  # total energy = -7882.74013019 
CRSYTAL
PRIMVEC
    15.6080000000000005    0.0000000000000000    0.0000000000000000
     0.0000000000000000   15.6080000000000005    0.0000000000000000
     0.0000000000000000    0.0000000000000000   16.6239999999999988
PRESSURE
-1.30565 -1.02901 -1.07494 -0.26378 0.255781 -0.114728
PRIMCOORD
320 1
Pb       3.97914      3.83143      4.11197        -0.475114     -0.013669     -0.299337
Pb       4.06238      4.00111      0.10240        -0.719663     -0.303841     -0.252588
Pb       3.91294      0.00293      3.98033        -0.178333      0.108819      0.185549
Pb       3.82380     15.56989     16.57357         0.234239      0.166720     -0.174529
Pb       0.05098      3.84900      4.13090         0.164834      0.032213     -0.108740
Pb      15.56884      3.78134     16.60528         0.035072      0.568274     -0.179195
Pb      15.55945     15.48937      3.99667         0.493715      0.141158      0.586234
Pb      15.57254     15.58078     16.57769        -0.020086      0.009312     -0.524570
Pb       3.72127      3.75147      8.27498         0.174451      0.157835     -0.109470
Pb       3.84241      0.01036      8.16572         0.497419     -0.618379      0.170273
Pb      15.46645      3.81604      8.28089         0.381568      0.236503     -0.067023
Pb      15.58891     15.55972      8.21114        -0.109806     -0.161104      0.336340
Pb       3.77122      3.88063     12.49263         0.753564     -0.386387     -0.641717
Pb       3.84656     15.49800     12.50083         0.293833      0.386031     -0.404769
Pb       0.07920      3.98850     12.53058        -0.910686     -0.260174      0.014192
Pb       0.05557      0.19945     12.68638        -0.263626     -0.608195     -0.884721
Pb       3.81915      7.89126      4.10274         0.680536     -0.182354     -0.029594
Pb       3.87110      7.75825     16.53239         0.186345      0.187314      0.157313
Pb       0.02334      7.86899      4.19494        -0.323480      0.241693     -0.235205
Pb      15.58575      7.75812     16.53797         0.384343     -0.315340      0.368871
Pb       3.84805      7.70581      8.29714        -0.091988      0.119328     -0.790388
Pb      15.30132      7.71029      8.59186         0.807260      0.097005     -0.198040
Pb       3.94213      7.80127     12.39011        -0.165073     -0.017164      0.103749
Pb      15.51357      7.88324     12.55425        -0.001020     -0.239155     -0.726860
Pb       3.82254     11.71611      4.01387         0.126564     -0.281637      0.282329
Pb       3.83113     11.72621     16.56766         0.086427     -0.186720     -0.206297
Pb      15.52908     11.65335      4.02029         0.191434     -0.245549      0.049841
Pb      15.54829     11.76345     16.55941         0.195449     -0.071787     -0.119945
Pb       3.83067     11.76688      8.21574         0.122779     -0.149667     -0.324392
Pb       0.00322     11.65229      8.24493         0.471046      0.023803      0.333767
Pb       3.93077     11.62927     12.33603         0.075114      0.118860      0.126364
Pb       0.14262     11.66931     12.43337        -0.267586      0.128922     -0.241417
Pb       7.77604      3.68769      4.17133         0.513102      0.261557     -0.139504
Pb       7.78960      4.01350     16.58413         0.626696     -1.222436      0.482954
Pb       7.70812     15.50845      4.10556         0.561351      0.136970     -0.385636
Pb       7.82181      0.15645      0.03379        -0.197694      0.086898     -0.034776
Pb       7.67793      3.86408      8.39182         0.454453      0.058447     -0.382411
Pb       7.87269      0.01529      8.23958        -0.378546     -0.657685     -0.221026
Pb       7.78275      3.70729     12.41155         0.075029      0.507412      0.199960
Pb       7.68051     15.54425     12.46535        -0.051400      0.252149     -0.135605
Pb       7.80222      7.84038      4.18456        -0.160259     -0.034226     -0.379785
Pb       7.64172      7.81525     16.58775        -0.036986      0.146159      0.159524
Pb       7.82880      7.71739      8.20024        -0.127481      0.322189     -0.033843
Pb       7.73320      7.70113     12.43687         0.009276      0.242379     -0.471370
Pb       7.88758     11.74219      4.21929         0.364348     -0.280103     -0.172094
Pb       7.65359     11.79176     16.56502         0.244624     -0.341088      0.016807
Pb       7.77510     11.75231      8.24227        -0.014410     -0.042737     -0.031417
Pb       7.75461     11.60473     12.39128        -0.215878     -0.078696      0.001129
Pb      11.87243      3.79359      4.31846        -0.740825      0.131844     -0.313849
Pb      11.74815      4.05363      0.19550        -0.087078     -0.342770     -0.282181
Pb      11.59483     15.44005      4.13000        -0.290216      0.196683     -0.120534
Pb      11.59147     15.52747     16.58915         0.305718      0.095119      0.240777
Pb      11.73823      4.10191      8.47405        -0.414746     -0.245261     -0.687981
Pb      11.69080      0.16882      8.34150         0.272396     -0.344948     -0.129585
Pb      11.78612      3.83214     12.54307        -0.206889      0.241983     -0.405957
Pb      11.59535      0.04599     12.42164         0.407937     -0.138348     -0.504657
Pb      11.77708      7.77568      4.21158        -0.155267     -0.096548     -0.330686
Pb      11.57502      7.81843      0.00503         0.037819     -0.168239     -0.124780
Pb      11.65509      7.81898      8.35275        -0.323192     -0.378923     -0.270116
Pb      11.47729      8.01118     12.61533         0.732119     -0.164303     -0.317713
Pb      11.85149     11.37370      4.20696        -0.584813      0.673397     -0.445430
Pb      11.63916     11.69470     16.52059         0.133066     -0.360416      0.327359
Pb      11.87682     11.92782      8.53436        -0.493545     -0.268064     -0.326680
Pb      11.57201     11.82621     12.41175         0.204330     -0.348041     -0.102140
Ti       1.94178      1.99648      2.13175         0.374223      0.282653      0.405625
Ti       1.98311      2.02701     14.64825        -0.159051     -0.229170      1.804202
Ti       1.94890     13.65559      2.10394        -0.670554     -0.074239      0.120202
Ti       1.92660     13.67636     14.59246        -0.125485     -1.197139      0.782943
Ti      13.69721      1.86069      2.25182        -0.857873      0.933559      0.366049
Ti      13.57581      1.89147     14.62615         1.074559      1.230226      0.033696
Ti      13.61963     13.65747      2.17302        -0.474036     -1.248828      0.126874
Ti      13.60093     13.60579     14.59467         0.796329     -0.316901      0.164392
Ti       1.95005      1.77350      6.26346         0.154629      1.317370     -0.714174
Ti       1.88653     13.56839      6.32419         0.570679     -0.114818      0.473592
Ti      13.64982      1.89997      6.37512        -0.134384     -0.176041     -0.674557
Ti      13.64902     13.57253      6.36361         0.007955      0.775346      0.236738
Ti       2.00340      1.89956     10.53074        -0.386752     -0.352439      0.695881
Ti       1.97749     13.69329     10.55411        -0.734788     -0.004231     -0.762136
Ti      13.73476      1.93786     10.62662        -0.361085     -0.363211     -0.960166
Ti      13.74955     13.70067     10.57072        -0.006117      0.310188      0.433072
Ti       1.88940      5.91965      2.26602         0.254164     -1.005596     -1.113539
Ti       2.05219      5.77692     14.57245        -0.747073      0.748486      1.496334
Ti      13.57977      5.78902      2.25202         0.304219      0.098296     -0.326485
Ti      13.72110      5.83389     14.72428        -0.329886     -0.907777     -1.319731
Ti       2.03147      5.73478      6.33944        -0.776190      0.288678      0.983745
Ti      13.80140      5.84009      6.36878        -1.065846     -0.145296     -0.022914
Ti       1.84051      5.81256     10.54878        -0.212560     -0.056669     -1.260437
Ti      13.55601      5.81832     10.62109         0.715127      0.527026      1.179532
Ti       1.97629      9.78648      2.15800        -0.153371     -0.649876      0.728993
Ti       1.93884      9.70734     14.71459         0.295906      0.696829     -0.226163
Ti      13.61422      9.67409      2.08174         0.246331      0.158310     -0.048993
Ti      13.71232      9.67859     14.68821        -1.214759      0.640027     -0.427020
Ti       1.97842      9.61011      6.31209        -0.414301      1.213070      0.462323
Ti      13.68081      9.72708      6.50540         0.266124     -0.485200     -0.780454
Ti       1.96737      9.70284     10.45448        -0.720182      0.048457      0.497904
Ti      13.69508      9.80926     10.54637        -0.139589     -0.488131      0.779739
Ti       5.88576      1.95490      2.16762        -0.206537     -0.470544     -0.079654
Ti       5.79494      1.88065     14.71873         0.531299      0.252104      0.769980
Ti       5.85709     13.55438      2.15805         0.017351      0.344704      0.712616
Ti       5.80920     13.64125     14.57007         0.023877     -0.110694     -0.135082
Ti       5.88327      1.87501      6.29550        -1.016108     -0.336561     -0.774736
Ti       5.84684     13.58403      6.22655        -0.017970      0.383101      0.580267
Ti       5.84653      1.96059     10.48792        -0.485285     -0.755462      0.175071
Ti       5.84986     13.63497     10.50051        -0.245412     -0.000315     -1.228574
Ti       5.81077      5.85843      2.15114         0.260384      0.612954      1.506700
Ti       5.90826      5.73541     14.61205        -0.522329      0.808061     -0.133851
Ti       5.84973      5.69539      6.32779        -0.003746      1.177360     -0.313848
Ti       5.74777      5.82650     10.43097         0.782389     -0.592646      1.390581
Ti       5.93316      9.74348      2.22721        -0.484392      0.045196     -0.001806
Ti       5.86090      9.77335     14.59780        -0.512170     -0.313123     -0.177111
Ti       5.85955      9.67509      6.32596        -0.283444     -0.118801     -0.791707
Ti       5.80130      9.69774     10.33541         0.934620      0.808278      0.938515
Ti       9.83283      1.90378      2.25909        -0.214874      0.102018      0.875563
Ti       9.80329      1.85966     14.64841        -1.587124      1.549279     -0.780184
Ti       9.75729     13.54054      2.11201        -0.200236     -0.470949      0.296426
Ti       9.72266     13.59784     14.66632        -0.565763     -0.460824     -0.058599
Ti       9.74140      1.94344      6.43738         0.338299      0.220482     -1.220271
Ti       9.83878     13.57647      6.34226        -0.590398     -0.018851     -0.817017
Ti       9.78995      1.95726     10.47896         0.335736      0.692063      0.677882
Ti       9.68576     13.70005     10.50049         0.352823     -0.439979     -0.289351
Ti       9.68484      5.78110      2.31593         0.607574      0.014690     -0.415589
Ti       9.76464      5.78040     14.69390         0.353461     -0.363170      0.706051
Ti       9.77307      5.80714      6.33700         0.148744     -0.552723     -0.059359
Ti       9.75002      5.84216     10.61697         0.067951     -0.481292     -0.373131
Ti       9.75136      9.70896      2.12383         0.420928      0.272001     -0.051169
Ti       9.70270      9.68915     14.72169         0.069405      0.512598     -0.328724
Ti       9.80456      9.74361      6.39801        -0.049478      0.018697      0.362454
Ti       9.69866      9.74128     10.49483        -0.049302      0.448335     -0.405112
O       1.93448      2.02985      0.35133         0.015685     -0.333060     -0.064409
O       2.04661      1.87979     12.91585        -0.037541      0.280755     -0.823561
O       1.93955     13.54104      0.33174         0.005607      0.802574      0.389206
O       2.05868     13.49779     12.82069        -0.186198      0.185693      0.023716
O      13.66321      1.83449      0.49471         0.085976      0.027547     -1.060190
O      13.65081      2.08307     12.82760        -0.119465     -0.666419      0.805111
O      13.66814     13.65690      0.42219         0.008185      0.320718     -0.550435
O      13.53901     13.55356     12.84128        -0.212625      0.047801      0.051473
O       2.00669      2.00082      4.49625        -0.356863     -0.464389      0.180352
O       1.89476     13.61997      4.58550        -0.118410     -0.195841     -1.246138
O      13.68175      1.95410      4.57652        -0.084002     -0.227452      0.374627
O      13.69859     13.50669      4.59128        -0.142326      0.180550     -0.365241
O       2.12231      1.76167      8.73505        -0.453639      0.413398      0.147306
O       1.92004     13.86709      8.73701        -0.008446     -0.471763      0.722454
O      13.74367      1.83327      8.78378        -0.010488      0.256783     -0.170787
O      13.76634     13.66086      8.73154        -0.226575     -0.091269      0.619358
O       2.02365      5.89778      0.46030        -0.130696      0.098339      0.506231
O       2.15021      5.70192     12.81547        -0.470049      0.293363     -0.601594
O      13.68462      5.62876      0.41700        -0.621448      0.563212      0.272322
O      13.77844      5.74477     12.88361        -0.444672      0.225595      0.595302
O       1.88433      5.80366      4.60659         0.077669     -0.086859     -1.182368
O      13.63290      5.84727      4.60917         0.238967     -0.068796     -0.704006
O       1.85605      5.73721      8.70219         0.389654      0.175070      0.743499
O      13.76435      5.73934      8.82996        -0.312630      0.014586     -1.108120
O       1.93251      9.66218      0.42548        -0.032208     -0.089812     -1.088140
O       1.78093      9.68834     12.91969         0.575859      0.455386      0.248517
O      13.47526      9.65464      0.29216         0.364412     -0.092788      0.650392
O      13.66757      9.54863     12.86555         0.402801      0.475587      0.238987
O       1.89367      9.78222      4.51585         0.228292     -0.234745     -0.218993
O      13.59645      9.63675      4.64229        -0.021331      0.394834      0.673081
O       2.12661      9.64052      8.70661        -0.316643     -0.055668     -0.034653
O      13.88550      9.86261      8.76829        -0.642834     -0.723990     -0.851598
O       5.86497      1.86569      0.37100        -0.005695      0.006933     -0.063006
O       5.91496      1.94586     12.98695         0.119516     -0.056028     -1.488211
O       5.81876     13.56828      0.39444         0.235722      0.276747     -0.778527
O       5.74508     13.66787     12.75571         0.084853     -0.146229      0.694269
O       5.85464      1.99003      4.41691         0.137193     -0.250123      1.162309
O       5.78503     13.57587      4.40379         0.145358      0.174721      1.104171
O       5.78917      1.98541      8.70437         0.072183     -0.032511     -0.037634
O       5.96512     13.53539      8.67707        -0.125710      0.392114      0.483302
O       5.79736      5.92019      0.38377        -0.104628     -0.266909     -0.582949
O       5.93655      5.86054     12.81772        -0.213228     -0.037845      0.505163
O       5.79248      5.84430      4.55507         0.455157     -0.212851      0.004995
O       5.95494      5.74733      8.70193        -0.441971     -0.001082     -0.607102
O       6.00024      9.76249      0.45108        -0.073491      0.022273     -0.958125
O       5.84587      9.80030     12.79478        -0.142487     -0.353463      0.729438
O       5.84922      9.60813      4.44896         0.203749      0.603043      1.264952
O       5.85482      9.82959      8.58531        -0.298939     -0.191286     -0.461276
O       9.73915      1.89375      0.50173         0.302666     -0.570421     -1.325192
O       9.72035      1.90596     12.78091         0.261252     -0.343765      1.276909
O       9.63532     13.51695      0.27350         0.376537      0.533552      0.528838
O       9.86398     13.69626     12.87068        -0.055720      0.035878     -0.269804
O       9.60785      1.81853      4.57777         0.105138      0.151191      1.074000
O       9.80265     13.50279      4.51221         0.038093      0.482339      0.764839
O       9.71656      1.95865      8.70454         0.080381      0.034973     -0.750153
O       9.69607     13.51451      8.73136        -0.167857      0.168461     -0.210433
O      10.00828      5.57659      0.50506        -1.010259      0.682580      0.032460
O       9.71919      5.82817     12.95585        -0.164111      0.318442     -0.983652
O       9.61799      5.74073      4.55249         0.280177      0.514292     -0.260832
O       9.96787      5.76174      8.84410        -0.672809      0.264963     -0.332925
O       9.85262      9.78302      0.31975        -0.124363     -0.401699     -0.363302
O       9.72078      9.79168     12.88432         0.060035     -0.592847      0.019843
O       9.93549      9.56742      4.61647        -0.149355      0.228621      0.007419
O       9.73378      9.84568      8.72648        -0.044859     -0.378870      0.272707
O       3.88302      1.93793      2.45118         0.075312     -0.267015     -0.030033
O       3.88472      1.93724     15.04703         0.360144     -0.159482     -0.092583
O       3.77574     13.64623      2.49746         0.724892      0.415440     -0.222175
O       3.89354     13.64698     14.95257         0.080145      0.106112      0.033561
O       0.01043      2.03903      2.50250        -0.514372     -0.147480      0.047972
O       0.07019      1.99796     14.90182        -0.398555     -0.522705      0.204073
O      15.58257     13.52165      2.50977         0.122700      0.455202     -0.159844
O      15.59903     13.61179     14.96660        -0.343269      0.160796     -0.203662
O       3.91863      1.74492      6.50870        -0.019605      0.753133      0.431677
O       3.88863     13.64237      6.63901         0.788205     -0.388054     -0.135801
O       0.00158      1.83238      6.63124        -0.155583      0.273197      0.024170
O       0.02421     13.54041      6.75266        -0.825981      0.688765     -0.543408
O       3.88091      1.85322     10.93147         0.295625      0.255212     -0.311115
O       3.88004     13.66006     10.69121         0.178260      0.001850      0.371453
O       0.05057      1.85009     10.96381         0.032506      0.222276     -0.380960
O      15.54603     13.71698     11.02148         0.859546     -0.283073     -0.474157
O       3.91563      5.91993      2.48089        -0.318019      0.058734      0.195900
O       3.97181      5.84629     14.94945        -0.234806     -0.192979     -0.050512
O      15.50836      5.71201      2.43903         0.671239      0.048927      0.566631
O       0.06038      5.63000     14.94959         0.438241      1.276987      0.045325
O       3.92840      5.88579      6.59658        -0.054116     -0.573968      0.663381
O       0.04648      5.74325      6.66448         0.036777      0.108130      0.022694
O       3.88270      5.70386     10.68286         0.227217      0.350770      0.235470
O      15.58208      5.68106     10.90748         0.615247      0.277051     -0.190611
O       3.92398      9.65799      2.36242        -0.703559     -0.058242      0.573295
O       3.87814      9.77890     14.96649        -0.182520      0.000018     -0.086991
O      15.57952      9.72487      2.48397        -0.450526     -0.000749     -0.112724
O      15.59500      9.74099     15.14176        -0.118741     -0.097714     -0.479493
O       3.90200      9.77762      6.54857         0.963353      0.356543      0.201132
O       0.03668      9.63600      6.62703        -0.388391      0.477818      0.239214
O       3.89546      9.70171     10.89490        -0.502455     -0.054129     -0.334437
O       0.06047      9.65651     10.80034         0.245278      0.350762      0.216309
O       7.75576      1.99622      2.50978         0.300181     -0.540004     -0.129364
O       7.85255      1.87641     15.08588         0.241103     -0.010839     -0.346756
O       7.77537     13.37301      2.54769        -0.264607      0.837261     -0.535145
O       7.76440     13.48898     14.75282         0.281019      0.559668      0.248001
O       7.74409      1.95071      6.68559         0.406711     -0.165919      0.114313
O       7.89887     13.73212      6.52619        -1.049725     -0.249690      0.156272
O       7.83644      2.03109     10.74664        -0.164364     -0.352013      0.031419
O       7.72320     13.75583     10.83716         1.355294     -0.271844      0.204037
O       7.75664      5.82640      2.39722         0.494534     -0.404398      0.163434
O       7.77278      5.75625     15.15377         0.037394      0.690419     -0.814785
O       7.75111      5.91166      6.68879         0.333492     -0.540662      0.000794
O       7.84870      5.77848     10.81973        -0.457338      0.242730     -0.071070
O       7.92802      9.86094      2.46810        -1.214765     -0.088898      0.508358
O       7.78398      9.76674     14.84876        -0.326273      0.086777      0.427993
O       7.88509      9.63206      6.52168        -0.552957     -0.063387      0.363202
O       7.68201      9.63887     10.70348         0.861503      0.398803      0.378432
O      11.69317      1.75598      2.58857         0.251718     -0.414941      0.041017
O      11.70996      1.89304     14.85339         0.125081     -0.354959      0.310151
O      11.65172     13.65204      2.44149         0.845167      0.282861     -0.274019
O      11.75243     13.58419     15.03516        -0.746920      0.673976     -0.149007
O      11.62884      1.98461      6.62430         0.923226     -0.188484      0.317959
O      11.72525     13.55985      6.72547         0.315455     -0.036554      0.078076
O      11.78162      1.95607     10.77258        -0.782602     -0.379363      0.364444
O      11.67573     13.55623     10.65759        -0.021049     -0.172662      0.523785
O      11.65422      5.78252      2.60836         0.464704      0.437592      0.073765
O      11.70813      5.93266     14.90645         0.084085     -0.340877      0.362151
O      11.70546      5.85566      6.68016         0.450809     -0.304998      0.154646
O      11.70224      5.97940     10.88284         0.597440     -0.354145      0.268757
O      11.70476      9.65271      2.58593         0.513825     -0.083817     -0.334899
O      11.68975      9.51712     14.86039        -0.247976      0.147235      0.130066
O      11.72904      9.68165      6.86483         0.612494      0.077745     -0.412012
O      11.73873      9.76838     10.76114        -0.426553      0.010263      0.163773
O       2.01613      3.88890      2.55696        -0.202364      0.520348     -0.103746
O       2.04497      3.95573     14.95812         0.270121     -0.959270     -0.217754
O       1.80918      0.04278      2.41541         0.271797     -0.942538     -0.106900
O       1.96770     15.54250     14.95883        -0.127101      0.717571     -0.020115
O      13.39074      3.79695      2.57356         0.920483      0.331841     -0.307625
O      13.78667      3.87365     14.95783        -1.087224     -0.821714      0.207318
O      13.70699     15.56084      2.49435         0.140940     -0.497420      0.351111
O      13.80721     15.58639     14.82845        -0.648643      0.259974      0.370606
O       2.04378      3.78348      6.64902        -0.123686      0.345914      0.029078
O       1.96736     15.55100      6.53084        -0.321878     -0.406920      0.326212
O      13.67670      3.87434      6.61718         0.081495     -0.390387      0.474993
O      13.54094     15.53950      6.60332         0.457610      0.323423      0.174770
O       1.88690      3.79866     10.90309         0.728921     -0.213675     -0.414455
O       1.88943     15.52462     11.08536         0.416428      0.756603     -0.616165
O      13.62450      3.85516     10.82181        -0.029849      0.347650      0.051943
O      13.61541     15.60666     10.97013        -0.021884     -0.452763     -0.138032
O       1.82693      7.78362      2.63069         0.239914     -0.071920     -0.268337
O       1.94574      7.81017     14.87333        -0.089735     -0.941194      0.417011
O      13.61776      7.75045      2.41225         0.094920     -0.219455      0.225966
O      13.75091      7.75870     14.91493         0.431332     -0.499421      0.519743
O       2.14595      7.81208      6.54224        -0.413934     -1.361347      0.182810
O      13.74586      7.75581      6.69363        -0.366036      0.053673      0.656777
O       1.81015      7.67621     10.86424         1.034484      0.514216     -0.204426
O      13.86024      7.77031     10.70950        -0.335072     -0.212903      0.013110
O       2.01222     11.66850      2.39464        -0.342367      0.346795      0.248865
O       1.84905     11.75214     15.06647         0.463271     -0.957793     -0.456755
O      13.60788     11.63625      2.41400        -0.065975     -0.073861      0.348774
O      13.59469     11.64641     14.98817         0.290691     -0.090349     -0.260678
O       1.94279     11.66987      6.69395         0.153718      0.121958      0.154863
O      13.67323     11.67062      6.79125         0.003427     -0.287558     -0.423716
O       1.91203     11.67612     10.69801         0.135628     -0.100298      0.302725
O      13.83387     11.65150     10.83756        -0.597441      0.602449      0.033885
O       5.78508      3.89365      2.31573        -0.140276      0.386424      0.326719
O       5.92622      3.84164     14.93796        -0.413909      0.848112      0.366357
O       5.83970     15.57836      2.43862         0.163221     -0.387341      0.169867
O       5.88180     15.60099     14.87773        -0.124504     -1.202739      0.427644
O       5.79565      3.80786      6.55943         0.085147      0.434820      0.308889
O       5.83890     15.59018      6.59469         0.588694     -0.526302     -0.233643
O       5.87160      3.82455     10.84254        -0.183774      0.691906     -0.121005
O       5.90532      0.01281     10.83821        -0.271582      0.247105     -0.020766
O       5.96417      7.88874      2.49005         0.032508     -1.541574     -0.132869
O       5.78876      7.81961     14.97503         0.587848     -0.061979     -0.326855
O       5.84249      7.82733      6.70896        -0.057318     -0.358580      0.036494
O       5.74573      7.81503     10.74819         0.056791     -1.327989     -0.124369
O       5.65551     11.70256      2.36536         0.189056     -0.248335      0.594717
O       5.78535     11.70770     14.90202         0.035288     -0.080641      0.122262
O       6.02604     11.70748      6.54845        -0.444728      0.091929     -0.184927
O       5.86162     11.68819     10.72123        -0.252318     -0.133373      0.345664
O       9.88646      3.74793      2.53156        -0.599185      0.915797      0.376842
O       9.74176      3.82935     14.89612         0.097052     -0.065551      0.294240
O       9.65987     15.43279      2.50500        -0.261011      0.538990     -0.049039
O       9.78312     15.53701     14.96212         0.044783      0.237201      0.235177
O       9.71794      3.91329      6.67193        -0.277202     -0.540738      0.214926
O       9.84035     15.55600      6.73404        -0.210845      0.459304      0.072661
O       9.96459      3.88693     10.80746        -0.566613      0.145806      0.290665
O       9.85139      0.04182     10.63248        -0.285102     -0.884068      0.591103
O       9.68779      7.78720      2.37759         0.154672     -0.856466      0.251021
O       9.53986      7.72081     15.05460         0.736014      0.390617     -0.188560
O       9.82657      7.67786      6.81439        -0.309717      0.915080     -0.075472
O       9.71773      7.84782     10.86608         0.002056     -0.146956      0.027581
O       9.83305     11.63141      2.38639         0.270651      0.286935      0.511780
O       9.80498     11.65782     14.90747         0.214491      0.065249     -0.035737
O       9.75481     11.64869      6.50498        -0.102319     -0.029634      0.436754
O       9.60019     11.73729     10.91680         0.331029     -0.422797     -0.315435
