  # total energy = -7882.83971049 
CRSYTAL
PRIMVEC
    15.6080000000000005    0.0000000000000000    0.0000000000000000
     0.0000000000000000   15.6080000000000005    0.0000000000000000
     0.0000000000000000    0.0000000000000000   16.6239999999999988
PRESSURE
-0.05357 -0.18136 1.02777 -0.177729 0.339361 -0.043179
PRIMCOORD
320 1
Pb       3.92198      3.80045      4.10121         0.339008      0.336454      0.169729
Pb       3.99794      3.95265      0.03185        -0.102545     -0.476741     -0.347736
Pb       3.90840     15.57167      4.00488         0.148617      0.103536      0.139947
Pb       3.88731     15.57093     16.54700        -0.137414      0.075936      0.056285
Pb       0.03132      3.88552      4.08176         0.134916     -0.262503      1.123065
Pb      15.59835      3.80321     16.60374         0.145347      0.340001      0.064237
Pb      15.58562     15.48862      4.02934        -0.196849      0.219321      0.517986
Pb      15.58420     15.59169     16.55876         0.068708     -0.293134     -0.038903
Pb       3.81888      3.79172      8.23156         0.159612      0.183166      0.179186
Pb       3.84891     15.55110      8.14309        -0.248994     -0.644911      0.555184
Pb      15.48506      3.84651      8.26375         0.317296      0.301913      0.373983
Pb      15.52233     15.54591      8.21804         0.897099     -0.321590      0.989250
Pb       3.77417      3.84316     12.46921         0.465895      0.225252      0.388966
Pb       3.88046     15.58177     12.54416         0.212619     -0.384775     -0.443353
Pb       0.06302      4.04094     12.55173        -0.097192     -0.633383     -0.358030
Pb       0.07458      0.09959     12.62061        -0.330116     -0.125585     -0.211619
Pb       3.87184      7.85536      4.01377        -0.049071     -0.166084      0.685160
Pb       3.90558      7.77544     16.51897        -0.438524      0.062969      0.246972
Pb      15.51339      7.83865      4.12165         0.604626     -0.235456      0.448829
Pb      15.57442      7.74489     16.51252         0.298372     -0.037399      0.654605
Pb       3.78369      7.74061      8.30334         0.115910      0.098286      0.072911
Pb      15.35754      7.70471      8.52267         0.613375      0.023839     -0.680662
Pb       3.93779      7.75013     12.36242        -0.238751      0.702816     -0.104899
Pb      15.50936      7.80629     12.47441         0.200618      0.871562      0.293823
Pb       3.84418     11.72200      4.01799         0.204245     -0.396184      0.736927
Pb       3.81741     11.74357     16.61311         0.280549      0.057952     -0.258116
Pb      15.52089     11.62965      4.01663         0.497695      0.270310      0.623050
Pb      15.55731     11.70035     16.54033         0.066860     -0.122654      0.056564
Pb       3.85537     11.78768      8.31099        -0.312551     -0.459634     -0.354248
Pb       0.03370     11.68765      8.23772         0.167738     -0.134650      0.246359
Pb       3.87054     11.63273     12.36652        -0.007169     -0.202453     -0.157502
Pb       0.07105     11.73449     12.47142        -0.497361     -0.363975     -0.111796
Pb       7.77582      3.74761      4.13911         0.239626      0.595247     -0.285359
Pb       7.80468      3.96992     16.54472        -0.115469     -0.229264      0.960982
Pb       7.74427     15.56335      4.14322         0.259246     -0.084822     -0.283105
Pb       7.78963      0.11983     16.59086         0.241985     -0.749462      0.401127
Pb       7.77197      3.81497      8.36418        -0.300844      0.187469     -0.745396
Pb       7.82856      0.03144      8.18086        -0.177200     -0.191931      0.239198
Pb       7.83827      3.73688     12.40085        -0.424345      0.572189      0.902699
Pb       7.71023     15.55893     12.38464         0.078645     -0.023971      0.200192
Pb       7.85267      7.82701      4.17438         0.384230     -0.412124     -0.216808
Pb       7.60936      7.71178     16.59306         0.936664      0.331047      0.302020
Pb       7.80295      7.71907      8.19031         0.271037      0.057091      0.152370
Pb       7.69779      7.78690     12.40904        -0.199753     -0.167809      0.580194
Pb       7.82982     11.72064      4.15070         0.182559     -0.278975      0.103907
Pb       7.70225     11.81494     16.54298        -0.067497     -0.489306      0.427585
Pb       7.86119     11.74448      8.30357        -0.107236     -0.404121     -0.534413
Pb       7.77386     11.70259     12.39135        -0.025373     -0.360243      0.393774
Pb      11.82644      3.77819      4.21712        -0.501321      0.286920      0.074931
Pb      11.69136      3.99632      0.15791         0.183920     -0.195195     -0.123691
Pb      11.62123     15.45488      4.08355         0.442909      0.220505      0.360353
Pb      11.62775     15.57020     16.52873         0.511128     -0.212279      0.483241
Pb      11.72400      4.03295      8.41649         0.243645     -0.031536     -0.250622
Pb      11.74214      0.13840      8.34359        -0.003229     -0.591640      0.072358
Pb      11.74578      3.85718     12.42933        -0.071143      0.151452      0.445924
Pb      11.51408      0.08017     12.39690         0.578364     -0.243188      0.730284
Pb      11.76695      7.89674      4.23853        -0.770043     -0.461906     -0.169227
Pb      11.65925      7.80627     16.59670         0.221776     -0.267734      0.204878
Pb      11.69979      7.74147      8.36826        -0.332300      0.134196     -0.045507
Pb      11.55806      7.99242     12.51759         0.371338     -0.663618      0.307380
Pb      11.88739     11.49897      4.15184        -0.969499      0.575316      0.292328
Pb      11.56381     11.64514     16.53028         0.766942      0.045314      0.399073
Pb      11.76011     11.86419      8.51049         0.321894     -0.267140     -0.694171
Pb      11.60188     11.73947     12.43827         0.652346     -0.118227     -0.041515
Ti       1.98404      2.02821      2.23130        -0.034222     -1.500119      0.343768
Ti       2.00965      2.01804     14.67528         0.750958     -0.341301      0.089097
Ti       1.91489     13.67256      2.19469        -0.076374     -0.348883     -1.067079
Ti       1.90669     13.64286     14.59009        -0.033158      0.413126      1.594726
Ti      13.67840      1.91656      2.31651         0.358967     -0.961390      0.453780
Ti      13.76933      1.95881     14.63334        -1.607266     -1.053426     -0.774662
Ti      13.63442     13.54725      2.12136        -0.250154      1.362492      1.116343
Ti      13.61453     13.58480     14.67884         0.191615      0.622335     -0.262310
Ti       1.89808      1.79886      6.38147         0.047815      0.284576     -0.977127
Ti       1.89077     13.53250      6.21121         0.146264     -0.090639      1.592683
Ti      13.63833      1.88024      6.42458         0.166871      0.606961     -0.279932
Ti      13.62886     13.59416      6.40725        -0.012078     -0.172117      0.066142
Ti       2.00784      1.84382     10.63392        -1.049208      0.882570     -2.212001
Ti       1.90295     13.63934     10.52732         0.517460      0.191182     -0.899533
Ti      13.73419      2.00283     10.57307        -0.475614      0.118448      0.898189
Ti      13.63298     13.80554     10.64882         0.313443     -1.683784     -0.003642
Ti       1.89386      5.87364      2.22592         0.389762      0.425073     -0.438113
Ti       1.98239      5.93416     14.53888        -0.318820     -0.839105      1.103079
Ti      13.60879      5.84613      2.30677        -0.006689     -0.334111     -0.540336
Ti      13.66363      5.72337     14.69003        -0.414094      1.409667     -0.251619
Ti       1.90201      5.70408      6.35866        -0.340336      0.915483      0.350639
Ti      13.59071      5.88637      6.34879         0.575680     -0.693748      0.895838
Ti       1.85273      5.83403     10.59166         0.550114     -0.178490     -0.346292
Ti      13.58454      5.94025     10.69189        -0.080074     -0.409939     -0.854091
Ti       1.97225      9.72145      2.21842        -0.582327      0.671755      0.239823
Ti       1.95891      9.79069     14.73204        -0.574666     -0.628542     -1.107410
Ti      13.66662      9.68238      2.21367        -0.451387     -0.122071     -1.852495
Ti      13.64308      9.64075     14.79809         0.266764      0.667079     -0.915543
Ti       2.00508      9.61140      6.40213        -0.341863      0.293469      1.141953
Ti      13.71676      9.72006      6.46878        -0.074527      0.664192      0.866065
Ti       1.90225      9.75240     10.47463         0.374063      0.384744     -0.229013
Ti      13.70156      9.85245     10.60306        -0.453202      0.028842      0.210509
Ti       5.92069      1.94666      2.14692         0.096049     -0.197991      0.287349
Ti       5.93843      1.81515     14.63430        -1.354671      0.810703      1.019973
Ti       5.92563     13.55099      2.29922         0.122792      0.495061     -0.494421
Ti       5.83147     13.55674     14.63458        -0.400991      0.412655     -0.303784
Ti       5.82345      1.77907      6.27768         0.534353      1.339390     -0.518387
Ti       5.90473     13.48187      6.37553        -0.574790     -0.174063     -1.632107
Ti       5.77319      1.96460     10.51877         0.530006     -0.720307      0.014065
Ti       5.83049     13.60738     10.52528        -0.438198      0.375326     -0.341984
Ti       5.80519      5.89830      2.18725         0.638391     -1.143687      0.887416
Ti       5.84180      5.77570     14.77082         0.086833     -0.458962     -1.691929
Ti       5.76834      5.81102      6.26993         0.158372     -1.131350      0.086801
Ti       5.72985      5.75410     10.60616         0.569844      0.594392     -1.643006
Ti       6.01472      9.71633      2.23950        -0.288032      0.343027      1.155699
Ti       5.82805      9.67448     14.61667        -0.119771      0.808600      0.154580
Ti       5.88798      9.59460      6.30930        -0.040317      1.402261      0.017414
Ti       5.89286      9.74148     10.46947        -1.184821     -0.499894      0.812315
Ti       9.88027      1.92542      2.23606        -1.274827     -0.614876      0.249455
Ti       9.84826      1.93250     14.79540         0.445746     -0.424034     -0.967789
Ti       9.83121     13.55047      2.19740        -0.489440      0.196287      0.633219
Ti       9.70135     13.58701     14.64079         0.330584      0.804608      0.542773
Ti       9.81947      1.97092      6.42673        -0.630569      0.017454      0.607985
Ti       9.78658     13.63715      6.35153         0.272016     -0.034871      1.872894
Ti       9.74156      1.95733     10.53651         0.205055     -0.127754      0.714020
Ti       9.69841     13.65409     10.46365         0.123096      0.146034      0.858825
Ti       9.78032      5.79951      2.26322        -0.965473      0.256321     -0.131059
Ti       9.80006      5.82295     14.82323        -0.228959      0.373228     -0.617838
Ti       9.70223      5.79606      6.35435         0.859819      0.807205     -1.058560
Ti       9.63634      5.82032     10.74289         0.373585      0.597054     -0.221835
Ti       9.84582      9.66562      2.07579        -0.898958      0.401030      1.507068
Ti       9.67450      9.70133     14.69971        -0.178088     -0.200160     -0.024195
Ti       9.88755      9.76178      6.43763        -0.304149     -0.016900      0.163341
Ti       9.73020      9.73450     10.49995         0.093725     -0.366712      0.778976
O       1.91756      1.97237      0.45235        -0.154540      0.258506     -0.222069
O       2.01478      1.90280     12.89016        -0.153477     -0.174428     -0.601965
O       1.91806     13.77786      0.36548         0.154898     -0.763613      0.739150
O       1.88980     13.65188     12.85149         0.187061      0.121781     -1.087003
O      13.87634      1.95389      0.58563        -0.178201      0.134925     -1.025451
O      13.70609      2.01183     12.80990         0.075809     -0.097534      1.448940
O      13.68241     13.70627      0.39826        -0.054500     -0.381924     -0.804643
O      13.66731     13.60241     12.91885         0.070982     -0.034946     -0.830968
O       1.94103      1.76706      4.57198         0.268291      0.504790      0.628914
O       1.75953     13.48265      4.46242         0.554147      0.386153     -0.338212
O      13.55534      1.88569      4.65204         0.223036      0.052516      0.243254
O      13.68343     13.58018      4.67063        -0.160201     -0.055125     -0.769966
O       2.01132      1.93842      8.78351         0.009744     -0.359525      0.635309
O       2.11728     13.77925      8.74820        -0.148172     -0.427120      0.162900
O      13.65428      1.91029      8.81386        -0.161236     -0.032519     -0.882885
O      13.57365     13.64869      8.88248        -0.174079      0.008000     -0.792417
O       1.88046      5.89826      0.43073         0.063221     -0.445632      1.009194
O       2.01334      5.94742     12.76967        -0.200513     -0.174365      0.125727
O      13.60304      5.68993      0.52697         0.609198      0.067770      0.082265
O      13.55078      5.87367     12.90522         0.687116     -0.398591      0.951880
O       1.98379      5.73797      4.60103         0.043111      0.295118     -0.165417
O      13.56436      5.95215      4.58249         0.042983     -0.168086     -0.019155
O       1.83814      5.59804      8.85582        -0.057272      0.450798     -0.429466
O      13.67308      5.82397      8.82793        -0.228633      0.386066      0.572959
O       1.90674      9.77497      0.46398         0.270412     -0.066237     -0.679502
O       1.85566      9.77022     12.94850         0.154361     -0.111683      0.214656
O      13.65271      9.70582      0.41686         0.009023     -0.081101      0.275089
O      13.82973      9.75505     13.01162        -0.640920     -0.394873      0.430406
O       2.00814      9.68779      4.64983        -0.359675     -0.016852     -0.681701
O      13.58926      9.75102      4.67877         0.020136     -0.382003     -0.997406
O       1.88555      9.89154      8.68739         0.143527     -0.384331      0.529524
O      13.75439      9.73771      8.83848        -0.158034      0.167258     -1.006635
O       5.85696      1.88804      0.36162         0.133183     -0.129546      0.484616
O       5.81487      1.89389     12.87479         0.045132     -0.228194     -0.274190
O       5.90752     13.46153      0.48728        -0.264503     -0.037291     -0.066216
O       5.85814     13.59491     12.85520        -0.084802      0.168485      0.559120
O       5.87882      1.84175      4.44195        -0.102534      0.190569      1.188160
O       5.93221     13.52774      4.46105         0.036736      0.243836      1.267402
O       5.88435      1.92075      8.74577        -0.131682      0.130119     -0.068518
O       5.96226     13.65617      8.70629        -0.261198     -0.326398      0.036826
O       5.75136      5.94560      0.38099         0.259824     -0.396174     -0.390227
O       5.84175      5.78115     12.99074        -0.381224      0.165301      0.035205
O       5.78907      5.84609      4.48421        -0.059534      0.139039      0.429622
O       5.86345      5.64371      8.79286         0.161745      0.343474      0.797382
O       5.97632      9.88280      0.51506        -0.321329     -0.262418     -1.269886
O       5.74794      9.55202     12.86097         0.206272      0.689313      0.294313
O       5.88943      9.61205      4.49752        -0.179715     -0.417129      0.959310
O       5.81427      9.75474      8.75835         0.347438     -0.125888     -1.173449
O       9.92762      1.71876      0.46456        -0.620064      0.627757     -0.479818
O       9.85073      1.90333     12.98246        -0.400754      0.330324      0.823556
O       9.86300     13.82228      0.48878        -0.183140     -0.573413     -1.292544
O       9.75209     13.51153     12.89613        -0.190830      0.097544     -0.366737
O       9.83784      2.12493      4.70794        -0.007314     -0.370562     -1.161762
O       9.71246     13.65048      4.64538         0.265341     -0.252907     -1.716797
O       9.80034      2.01058      8.79495        -0.189559     -0.195351     -0.650439
O       9.57961     13.72983      8.70446         0.431021     -0.183418      0.419831
O       9.66370      5.70781      0.41079         0.573411      0.517413      1.219985
O       9.76037      5.68241     13.06486        -0.013899     -0.083345     -0.271466
O       9.76958      5.93645      4.56388         0.206104     -0.325289      0.060645
O       9.74851      5.96892      8.97673        -0.041888     -0.445144     -0.160438
O       9.87987      9.61279      0.35503        -0.413381      0.392641     -1.379450
O       9.66154      9.81962     12.91777         0.399529     -0.059919     -0.043320
O       9.98667      9.79567      4.66731        -0.223074     -0.191082     -0.401075
O       9.78958      9.59344      8.77273        -0.119310      0.040897     -0.385587
O       3.93915      1.91134      2.54326        -0.585772     -0.181684     -0.204249
O       3.93263      1.97879     15.01468        -0.431770     -0.211588     -0.042218
O       3.91720     13.55031      2.48725        -0.281198     -0.097103     -0.061194
O       3.84405     13.70735     14.97280         0.531464     -0.454549      0.028245
O       0.00755      1.93283      2.67734         0.671056     -0.160749     -0.437629
O       0.02873      1.97610     14.92769        -0.148962      0.271359      0.287466
O      15.53048     13.65119      2.43388         0.596470     -0.302328      0.110493
O       0.01564     13.60848     14.91679         0.222459     -0.229848      0.372104
O       3.89941      1.85209      6.69869         0.237329     -0.204178     -0.550338
O       3.93177     13.58180      6.61035         0.136888      0.400762     -0.212750
O       0.01359      1.90972      6.80814        -0.254825      0.053663     -0.586283
O      15.59672     13.61421      6.67931         0.244349     -0.214498      0.179100
O       3.88893      1.94260     10.83186         0.607328     -0.174600      0.265837
O       3.95235     13.54084     10.87657         0.138780      0.423502     -0.068714
O      15.55372      1.92025     10.86198         0.945119     -0.149906      0.207743
O       0.04600     13.63814     10.63192        -0.974837      0.292944      0.960003
O       3.89027      5.89642      2.46582        -0.644509     -0.051419      0.007544
O       3.86736      5.71458     14.99762         0.230101      0.649478      0.140966
O      15.60764      5.74405      2.68247         0.265643      0.608177     -0.647768
O       0.03340      5.93418     14.83842        -0.579230     -0.956017      0.146005
O       3.86552      5.85419      6.79195         0.141422     -0.099550     -0.528976
O      15.54207      5.85011      6.69067         0.135113     -0.394833     -0.146704
O       3.80025      5.87106     10.79973         0.526109     -0.188954      0.217267
O      15.55680      5.87751     11.03448         0.362984     -0.301548     -0.361000
O       3.82734      9.70360      2.54606         0.738431      0.201202     -0.443232
O       3.87811      9.75725     15.00855         0.462159     -0.240215      0.368557
O      15.49460      9.69047      2.58726         1.046001      0.182383      0.035496
O      15.59607      9.67237     15.12195         0.384874      0.119658     -0.065790
O       3.92260      9.68891      6.71648         0.265710     -0.384858     -0.118019
O       0.00641      9.76510      6.73443        -0.301460     -0.203562     -0.330722
O       3.81493      9.70090     10.80224         0.778514      0.500002      0.263050
O      15.56142      9.87574     10.93856         0.885790     -0.234895     -0.234808
O       7.83394      1.97856      2.47686        -0.312246      0.063707      0.062140
O       7.77455      1.82739     14.89183         1.187022      0.387921      0.474063
O       7.91996     13.54292      2.45473        -1.171779     -0.155671      0.442886
O       7.77391     13.62344     14.90286         0.216158     -0.125396      0.337102
O       7.83128      1.89739      6.67573        -0.588354      0.517586      0.028137
O       7.80863     13.55516      6.58745         0.112770      0.065300      0.415269
O       7.81019      1.99600     10.81264        -0.826102     -0.175928      0.151714
O       7.80070     13.53283     10.95978         0.231840      0.420533     -0.563793
O       7.82495      5.76319      2.51583        -0.317388      0.050047     -0.010940
O       7.80154      5.91595     15.06246        -0.447838     -0.637851      0.178388
O       7.88181      5.84490      6.56011        -1.961648      0.140210      0.648414
O       7.72366      5.80008     11.00856         0.237677     -0.346754     -0.304667
O       7.87855      9.72137      2.64543         0.167327     -0.071935     -0.503991
O       7.78676      9.77000     14.98264        -0.487990     -0.217336      0.032938
O       7.85644      9.74817      6.62510        -0.494945     -0.239792      0.167135
O       7.75848      9.68969     10.83420         0.718295      0.005379     -0.125288
O      11.71814      1.83830      2.54075         0.753445      0.469153      0.259390
O      11.83205      1.76152     15.02859        -0.807445      0.765782     -0.306686
O      11.71820     13.64908      2.57839         0.279141     -0.119602     -0.048208
O      11.71103     13.66020     14.94608        -0.422399     -0.337067      0.066478
O      11.74056      1.88578      6.81036        -0.056801      0.403783     -0.197205
O      11.70448     13.65338      6.71990         0.059259      0.244804      0.225059
O      11.62787      1.92363     10.94545         0.170389     -0.009883     -0.544224
O      11.63507     13.60280     10.90735        -0.710220      0.252935     -0.453817
O      11.73395      5.84906      2.55148        -0.372850     -0.331883     -0.121451
O      11.70601      5.77328     15.17476         0.042004      0.142765     -0.351765
O      11.66966      5.80922      6.78213         0.368156      0.194375     -0.044243
O      11.79449      5.91600     11.11400        -1.903617     -0.013794     -0.865899
O      11.70321      9.64411      2.44662         0.693471      0.014310      0.618306
O      11.69799      9.64215     14.99768         0.211458      0.379774     -0.130001
O      11.79712      9.71004      6.76513        -0.512869      0.028469      0.309311
O      11.73417      9.65806     10.92275        -1.286909      0.260196     -0.211531
O       1.99226      3.86402      2.58927        -0.144459      0.560461     -0.427144
O       1.89627      3.91189     14.77412        -0.086966      0.261940      0.501299
O       2.03838     15.53048      2.48394        -0.446543      0.404950      0.165235
O       1.91244      0.04200     14.84628        -0.050923     -0.424591      0.349283
O      13.74094      3.85091      2.71935        -0.838096      0.102732     -0.476551
O      13.51448      3.86900     15.08043         1.070169     -0.484768     -0.271599
O      13.64759     15.51683      2.64344        -0.003613      0.421747     -0.412877
O      13.83026     15.55899     14.89312        -0.052736      0.751921      0.169759
O       1.96815      3.81284      6.65681        -0.061409     -0.079022     -0.085798
O       1.87422     15.46479      6.57025         0.488380      0.877843      0.289549
O      13.59596      3.87700      6.76904         0.010676      0.003844     -0.399108
O      13.74946     15.57143      6.79250        -0.887468      0.204149     -0.402974
O       1.91771      3.81227     11.01517        -0.264525      0.829045     -0.094401
O       2.05003      0.00112     10.89773        -0.251770     -0.453562      0.429663
O      13.51249      3.92642     10.78196         0.518673     -0.373454      0.325104
O      13.53738     15.60548     10.85313         0.216329      0.656505      0.314338
O       1.85540      7.85369      2.62087        -0.045928     -1.396344     -0.311176
O       1.96406      7.74422     15.00717         0.374555      0.681969     -0.012667
O      13.66588      7.77541      2.55137         0.068288     -0.346148      0.093198
O      13.69651      7.65980     15.15019        -0.623689      0.608063     -0.536931
O       1.88037      7.73061      6.81322         0.344162     -0.066948     -0.235953
O      13.58750      7.76783      6.84211         0.368657      0.032186     -0.513484
O       1.92685      7.91275     10.69730        -0.623534     -1.917995      0.194310
O      13.71753      7.86064     10.84684         0.174611     -0.530858      0.218126
O       1.80214     11.68316      2.53412         0.522546     -0.274286     -0.390224
O       1.97980     11.66071     14.84957        -0.196751      0.909393      0.840049
O      13.58205     11.61507      2.50050         0.292215      0.554429     -0.106416
O      13.70394     11.65787     15.06208        -0.355328     -0.029879     -0.023741
O       2.01046     11.68290      6.73073        -0.275214      0.257661     -0.356294
O      13.63852     11.68203      6.71388        -0.078854     -0.106224      0.381356
O       1.96556     11.74866     10.77191         0.019129     -0.301479      0.500030
O      13.50723     11.70520     10.92265         0.318106      0.274577      0.005868
O       5.76069      3.87927      2.42738         0.125023     -0.097165      0.038838
O       5.88346      3.84717     15.12139         0.048333      0.317642     -0.415845
O       5.92312     15.53785      2.50822        -0.152620     -0.262292     -0.209334
O       5.82968     15.51524     15.06860         0.006229      0.314045     -0.464624
O       5.77601      3.86616      6.50348         0.318205     -0.045616      0.247330
O       5.99684     15.54231      6.52245        -0.567388     -0.014138      0.290468
O       5.70788      3.86641     10.95011         0.523545     -0.455706     -0.288407
O       5.86800     15.53237     10.89598        -0.047596      0.660729     -0.253651
O       5.91427      7.74439      2.39593        -0.061315      0.784866      0.363868
O       5.83115      7.80100     14.98265        -0.272693     -0.261552      0.441562
O       5.88220      7.72504      6.68771        -0.028768     -0.079811     -0.029510
O       5.79712      7.75011     10.85250         0.099509     -0.253694     -0.174501
O       5.90113     11.57233      2.70537        -0.119796      0.810672     -0.629567
O       5.81514     11.66438     14.89322        -0.036655      0.117570      0.303052
O       5.86946     11.58889      6.57255         0.069150      0.682281      0.290975
O       5.88277     11.65468     10.88902        -0.134461     -0.106432     -0.205343
O       9.83038      3.83826      2.64878         0.160664      0.394888     -0.532769
O       9.76076      3.83656     15.31227         0.158217     -0.881463     -1.379685
O       9.66469      0.03187      2.64034         0.547381     -0.327484      0.236752
O       9.75123     15.55760     15.06782        -0.137217      0.064062     -0.567030
O       9.68632      3.94995      6.80803         0.546478     -0.709169      0.074666
O       9.77659      0.04040      6.70860        -0.085969     -0.487164     -0.047915
O       9.68189      3.87386     10.95270         0.593760      0.075159     -0.311117
O       9.61960     15.58587     10.90741         0.339643     -0.190466     -0.428377
O       9.75083      7.77742      2.39024         0.021116     -0.594728      0.599191
O       9.77080      7.78847     14.94649        -0.010386     -0.305914      0.175954
O       9.76463      7.82566      6.70211         0.211136     -0.439980      0.192041
O       9.65039      7.71166     11.11578         0.515128      0.867121     -0.520724
O       9.86726     11.62088      2.33312        -0.077258      0.377457      0.225562
O       9.76599     11.67209     15.09648        -0.087607      0.418320     -0.372178
O       9.85053     11.72128      6.84609        -0.250654     -0.204718     -0.119267
O       9.72111     11.63028     10.64640         0.081637      0.433101      0.346723
