  # total energy = -7879.09774841 
CRSYTAL
PRIMVEC
    15.6080000000000005    0.0000000000000000    0.0000000000000000
     0.0000000000000000   15.6080000000000005    0.0000000000000000
     0.0000000000000000    0.0000000000000000   16.6239999999999988
PRESSURE
-0.750446 -0.900833 -1.03626 -0.000272 -0.36391 -0.039575
PRIMCOORD
320 1
Pb       3.73754      3.83674      4.15117         0.270689      0.128351     -0.313527
Pb       3.74125      3.73517     16.58222         0.069401      0.185527     -0.294555
Pb       3.93848     15.43514      4.31908        -0.451487     -0.147115     -0.467465
Pb       4.01027      0.00411      0.06756        -0.264197     -0.376174     -0.237879
Pb      15.60003      3.89941      4.14917        -0.295304     -0.005854      0.369681
Pb      15.59397      3.96510     16.61840        -0.223380     -0.389114     -0.065479
Pb       0.09313     15.59607      4.31388        -0.164143     -0.564911     -0.280404
Pb      15.59827     15.56001      0.03658        -0.003643      0.112477     -0.388185
Pb       4.06065      4.05329      8.29731        -0.460931     -0.684199      0.373732
Pb       3.88400     15.59707      8.46251         0.004946     -0.359834     -0.652481
Pb       0.11868      3.94873      8.26040        -0.783245     -0.237008     -0.273506
Pb      15.59110      0.05983      8.37882        -0.044997     -0.489818     -0.574900
Pb       3.96046      3.86688     12.33429        -0.419950     -0.003803     -0.482877
Pb       3.93903      0.14458     12.35727         0.015603     -0.551930      0.185621
Pb      15.49888      3.82989     12.36957         0.675288      0.096595     -0.105919
Pb      15.47137     15.53653     12.31296         0.358522     -0.237011      0.161842
Pb       3.95569      7.66237      4.23060        -0.397561      0.409004     -0.857076
Pb       3.86534      7.84880      0.05456        -0.087612     -0.041449     -0.225765
Pb      15.49001      7.72052      4.14673         0.069937      0.664388     -0.770559
Pb       0.01350      7.78071      0.01370        -0.072804      0.349855      0.388922
Pb       3.90824      7.85442      8.27414         0.310522      0.031191     -0.168934
Pb       0.19825      7.88127      8.01785        -1.150515     -1.142324      1.075416
Pb       3.76560      7.79137     12.47849        -0.089996      0.341825     -0.061607
Pb       0.05175      7.73210     12.38980        -0.488470      0.457847     -0.006130
Pb       4.00431     11.58540      4.29365        -0.576749      0.454729     -0.529295
Pb       3.91140     11.64145     16.61835        -0.451504      0.192973      0.653767
Pb       0.06718     11.66443      4.25176        -0.015373      0.031253     -0.763627
Pb       0.02378     11.59420     16.57188         0.005069      0.029700      0.534828
Pb       3.89325     11.48152      8.35857         0.304933      0.723216     -0.164844
Pb      15.58994     11.72790      8.40258        -0.231354      0.057046     -0.581285
Pb       3.78308     11.72224     12.60267        -0.302823      0.097015     -0.357251
Pb      15.36129     11.76736     12.46987         0.476425     -0.330617     -0.224683
Pb       7.87804      4.06958      4.12864        -0.247654     -0.170940      0.187347
Pb       7.74567      3.72688      0.12810         0.045123     -0.030895     -0.816931
Pb       7.89499      0.05335      4.17994        -0.641095     -0.203232      0.045073
Pb       7.81003     15.42621     16.56256         0.064878     -0.061985     -0.554755
Pb       7.88249      3.95128      8.06891        -0.103658     -0.128309      1.407744
Pb       7.70535     15.59577      8.36093         0.078017     -0.280839     -0.684951
Pb       7.79714      4.09343     12.52539         0.021792     -0.341546     -0.399267
Pb       7.78762      0.06178     12.40386        -0.011194     -0.233502      0.586227
Pb       7.77353      7.76581      4.14630         0.168315     -0.085978     -0.456599
Pb       7.87337      7.63157      0.06101        -0.745879      0.244792     -0.241328
Pb       7.68180      7.76964      8.38749         0.496546      0.009816     -0.199692
Pb       7.66964      7.98460     12.58946         0.458596     -0.428020     -0.687090
Pb       7.75949     11.63235      4.15531         0.194959      0.289848     -0.309375
Pb       7.91270     11.53300      0.06449        -0.414247      0.737905     -0.314254
Pb       7.77613     11.57495      8.46460         0.050544      0.357775     -0.474890
Pb       7.70924     11.79799     12.53581         0.347731     -0.328979     -0.410620
Pb      11.55668      3.97621      3.92577         0.166430      0.086973      1.269941
Pb      11.61812      3.66612     16.45494         0.310031      0.343753      0.007851
Pb      11.96554      0.14644      4.17371        -0.518888     -0.104890      0.287301
Pb      11.78710     15.58637      0.03252        -0.099345     -0.085023     -0.902533
Pb      11.69998      3.62376      8.07991        -0.019791      1.120913      0.373900
Pb      11.80965     15.41912      8.29887        -0.562429      0.149089      0.156081
Pb      11.52878      3.96016     12.35203         0.156969     -0.567478      0.409339
Pb      11.79241      0.06172     12.57795        -0.383938     -0.279506     -0.248373
Pb      11.65697      8.05061      4.16427         0.380491     -0.861489      0.098935
Pb      11.72574      7.74004     16.55763         0.021168      0.009795      0.155667
Pb      11.71374      7.73779      8.26119         0.019821     -0.221144     -0.526194
Pb      11.90456      7.53658     12.39287        -0.378441      1.432918      0.722447
Pb      11.55979     12.07081      4.09455         0.193155     -0.983522      0.442456
Pb      11.65529     11.74097      0.05826        -0.065975     -0.142811     -0.533754
Pb      11.52606     11.48554      8.11993         0.714359      1.020380      0.856410
Pb      11.65532     11.53023     12.53163        -0.019574      0.381539     -0.355387
Ti       1.90512      1.97777      2.22203        -0.560402     -0.688256     -1.195520
Ti       1.84085      2.03873     14.53189         0.156579     -1.271767     -0.384260
Ti       1.87654     13.75707      2.17389         0.121114     -1.098351      0.128378
Ti       1.85699     13.72851     14.68440         0.097317      0.029915     -1.571330
Ti      13.67518      2.00317      2.24702         0.005010     -0.048063     -0.765580
Ti      13.73844      1.86573     14.61137        -1.131292     -0.384902     -0.957934
Ti      13.62335     13.67084      2.17350         1.293014      0.190359     -0.325642
Ti      13.63266     13.46421     14.67242        -0.488869      1.080891      0.083154
Ti       2.04595      1.85911      6.33650        -0.863742      0.141125      0.757907
Ti       1.93406     13.54726      6.46306        -0.330597      0.352786     -0.070215
Ti      13.68573      1.87444      6.37105         0.050101      0.549408      0.611753
Ti      13.60829     13.54332      6.36940         0.785404      0.613817     -0.010778
Ti       1.87648      1.82970     10.48957         0.454788      1.172732      0.581008
Ti       1.97232     13.57015     10.50746        -0.517128     -0.162588      0.306694
Ti      13.57223      1.96752     10.46643        -0.044297     -0.376760      0.289051
Ti      13.46916     13.67586     10.42241         0.011539     -1.407151     -0.176552
Ti       1.80627      5.86842      2.20119         0.952133      1.277001     -0.197621
Ti       1.92901      5.90951     14.59903        -0.109010     -0.741403     -1.028127
Ti      13.53390      5.79900      2.25855        -0.010613      1.355627      0.774505
Ti      13.65778      5.68699     14.66354        -0.369769      0.714184      0.508959
Ti       2.06527      5.71175      6.35079        -1.659564      0.588208     -0.636961
Ti      13.66978      5.84544      6.24930        -0.914730     -0.487527      0.582253
Ti       1.90609      5.86442     10.41789         0.252362     -0.749300      0.425533
Ti      13.68543      5.78417     10.35347        -0.111322      1.018261      0.616797
Ti       1.93867      9.80562      2.27213        -1.084544     -0.378451     -0.060175
Ti       1.91082      9.76476     14.68621        -0.630669      0.093078      0.456999
Ti      13.51662      9.83784      2.27274         1.968729     -0.879721      0.556259
Ti      13.60666      9.58818     14.78277         0.601658      0.816677     -0.937857
Ti       2.02517      9.67884      6.28860        -0.750849      0.896083      0.018817
Ti      13.67373      9.70079      6.29334        -0.331537      0.258724     -0.601274
Ti       1.91181      9.79162     10.40570        -0.205604     -0.053191      1.076244
Ti      13.64462      9.75292     10.45108         0.207509     -0.056123     -0.638599
Ti       5.75381      1.96337      2.23457        -0.189348     -0.461413     -0.513014
Ti       5.81152      1.91549     14.71104         0.572375     -0.133833     -0.523635
Ti       5.78814     13.67067      2.31781        -0.329730     -0.520016     -0.008545
Ti       5.69434     13.60511     14.68667         0.921275      0.359445     -0.779508
Ti       5.81187      1.97362      6.24831         0.637839     -1.290534      1.743924
Ti       5.77773     13.62080      6.34400         0.451044      0.094787      1.629180
Ti       5.99103      2.04792     10.34238        -0.992827      0.311712      0.393003
Ti       5.84526     13.68152     10.51406        -0.388506     -0.351983     -0.273442
Ti       5.71651      5.84042      2.09113        -0.178929      0.705145      0.070870
Ti       5.84006      5.76198     14.73167        -0.187622      0.796218      0.459520
Ti       5.83903      5.78706      6.30003         1.066319      1.228421     -0.669731
Ti       5.76286      6.04712     10.45242         1.398316     -1.806736      0.320924
Ti       5.80760      9.81706      2.23920        -0.381935     -0.297775     -1.276719
Ti       5.83711      9.79661     14.67370        -0.495904     -1.255426      0.428444
Ti       5.93811      9.70318      6.37918        -0.405224      0.128075      0.879354
Ti       5.78995      9.82372     10.63900         0.437271      0.123429     -0.837322
Ti       9.63218      1.91060      2.19603         0.802632      0.052597      0.628492
Ti       9.69300      1.85679     14.56007         0.310539     -0.139908      0.841506
Ti       9.67436     13.72020      2.25083        -0.690350     -0.761932     -0.962146
Ti       9.75858     13.56456     14.64360        -0.197044      0.487611      0.308496
Ti       9.69422      1.88402      6.36749         0.287416      0.326530     -0.087441
Ti       9.64581     13.74339      6.37522         0.031152     -1.320952      0.129609
Ti       9.70760      1.89445     10.51713         0.791304      0.219907     -0.848726
Ti       9.64735     13.63190     10.51253         1.003789     -0.995367     -0.521705
Ti       9.65448      5.83574      2.04099         0.538754      0.995090      1.665054
Ti       9.67457      5.84952     14.65310         1.058791     -0.674519      0.168823
Ti       9.72801      5.92968      6.36646         1.086097     -0.166510     -0.190371
Ti       9.70277      5.88926     10.47246        -1.210332      0.322884     -0.688525
Ti       9.69644      9.76452      2.07437         0.267725     -0.287694      0.859892
Ti       9.68948      9.66178     14.58214         0.857607      1.148625      0.198853
Ti       9.73602      9.70921      6.36123        -0.232776     -0.120882     -0.229075
Ti       9.88347      9.73587     10.47890        -0.837623     -0.346395      0.938918
O       1.71271      1.99694      0.37454         0.791409     -0.053890      0.336133
O       1.87491      1.97998     12.71356        -0.039225     -0.042750      0.382207
O       1.69421     13.92726      0.36114         0.428964     -0.398075      0.066690
O       2.01267     13.47009     12.81009        -0.368509      0.563057      0.907088
O      13.60177      2.11491      0.43012         0.138796     -0.358195      0.310479
O      13.61742      1.82836     12.74952         0.473043      0.219271      0.530209
O      13.67694     13.79611      0.32326        -0.149433      0.012252      1.265736
O      13.43046     13.46812     12.84123         0.460177      0.434321      0.406904
O       1.98028      2.09423      4.55922        -0.150171     -0.251182      0.036936
O       1.98976     13.58025      4.69961        -0.151113      0.122812     -1.096934
O      13.77780      1.78596      4.60853        -0.217535      0.096988     -0.780260
O      13.64042     13.88030      4.54720        -0.624265     -0.685407      0.378204
O       2.00042      1.78825      8.73823         0.012839      0.195450     -1.192726
O       1.93573     13.52175      8.70722        -0.114450      0.359192     -0.193658
O      13.51321      1.96594      8.68619        -0.096398     -0.232047     -0.135783
O      13.61255     13.59006      8.60190         0.069506     -0.025730      1.016689
O       1.81521      5.97874      0.37937         0.239917     -0.864116      0.566002
O       1.79471      5.96456     12.72290         0.332980     -0.274581      1.448487
O      13.60394      5.61764      0.52440        -0.097180      0.326460     -1.157075
O      13.73069      5.95181     12.90185        -0.057149     -0.668912     -0.176103
O       1.96158      5.75431      4.55516         0.143288     -0.440071     -0.022621
O      13.47389      5.83881      4.50414         0.738151     -0.103799     -0.003786
O       2.13260      5.80127      8.60524        -0.192060      0.203873      0.441299
O      13.53204      5.90751      8.62705         0.028880     -0.231840      0.321586
O       1.84256      9.56926      0.47135         0.459963      0.277481      0.085982
O       1.81876      9.81251     12.93281         0.385907     -0.365293     -0.760081
O      13.58170      9.61856      0.54616         0.070571      0.291061     -1.651573
O      13.83037      9.70700     13.00173        -0.612071     -0.059969      0.156812
O       1.99704      9.88162      4.53574        -0.302023     -0.108783      0.267744
O      13.57655      9.76058      4.48015        -0.159989     -0.050363      0.736049
O       2.00902      9.89926      8.60772        -0.124026     -0.759152      0.081840
O      13.55057      9.81920      8.64495         0.291546     -0.405266      0.653745
O       5.75728      1.85850      0.36442         0.013928      0.289523      1.095863
O       6.10154      1.99766     12.95768        -1.070482     -0.261423     -0.315206
O       5.59962     13.59834      0.56165         0.333666      0.262539     -1.164191
O       5.64593     13.62141     12.88544         0.194663     -0.158256      0.090263
O       5.76643      1.90946      4.52661         0.013706      0.297668     -1.746667
O       5.63478     13.70165      4.60060         0.115818     -0.316845     -1.403277
O       5.92369      1.90648      8.56408        -0.353130     -0.133799      0.819808
O       5.94022     13.56712      8.71807         0.025045      0.588877      0.361759
O       5.73994      5.87797      0.31034        -0.240067     -0.020495     -0.106142
O       6.15579      5.76279     12.97029        -0.729374      0.352211     -0.176066
O       5.87924      5.83192      4.47988         0.052413      0.123305      0.303216
O       5.65070      6.04973      8.64531        -0.005954     -0.135179      0.026760
O       5.69906      9.99686      0.39763         0.000741     -0.793625      0.768379
O       5.73930      9.79055     12.87472         0.315786      0.059923     -0.199142
O       5.97659      9.76291      4.62551        -0.229392     -0.003012     -1.266859
O       5.79628      9.67457      8.74212        -0.479711     -0.018482      0.886638
O       9.69149      2.05999      0.45598         0.026611     -0.321175     -0.445267
O       9.76635      1.81386     12.78896        -0.210484     -0.141383     -0.432474
O       9.57682     13.47398      0.44220         0.324817      0.647189      0.982273
O       9.90940     13.62457     12.87849        -0.514584     -0.270493     -0.078894
O       9.63551      1.73436      4.59933         0.139440      0.217184     -0.450118
O       9.84681     13.76921      4.52488        -0.499874     -0.014443      0.677469
O       9.73133      2.04614      8.68343         0.160864     -0.226417      1.050361
O       9.48942     13.41413      8.71969         0.089943      0.606755      0.085433
O       9.78935      5.90883      0.32613        -0.093414     -0.550121     -0.780420
O       9.60363      5.84728     12.86812        -0.158081      0.082259      0.142914
O       9.46165      5.93196      4.57263         0.104073     -0.040074     -0.612434
O       9.74730      5.77422      8.65283         0.252956      0.334952      0.700454
O       9.80910      9.85687      0.30579        -0.655724     -0.184639      0.301541
O       9.69263      9.76157     12.80430        -0.064444     -0.159106      0.467538
O       9.66143      9.52625      4.57448        -0.399700      0.585612     -0.347188
O       9.80260      9.79318      8.65252        -0.157199     -0.291086      0.687683
O       3.77331      1.94269      2.42192         1.863127     -0.242516      0.077297
O       3.79655      1.92712     14.83614         0.162518     -0.116320      0.378749
O       3.72838     13.63592      2.52379         0.422210      0.618875      0.253642
O       3.74520     13.71998     14.94120         0.040056     -0.042246      0.641214
O       0.01676      2.09647      2.57238        -0.787059     -0.000736     -0.053727
O      15.52842      2.27184     14.81019         0.410686     -0.803293      0.121099
O      15.52213     13.71859      2.67264        -0.086634      0.020274     -0.493443
O      15.48757     13.61273     14.86292         0.667124     -0.286847      0.036376
O       3.89594      2.08410      6.55959         0.189211     -0.434526      0.318146
O       3.88804     13.73273      6.70898        -0.048322     -0.447659      0.380380
O      15.54802      1.83364      6.74546         0.809857      0.263124      0.009109
O      15.56817     13.75466      6.63845        -0.196048     -0.261769      0.285524
O       3.92911      1.89245     10.75272         0.566851      0.069160      0.090231
O       3.91338     13.77654     10.64817         0.064263      0.231376      0.290678
O      15.55273      1.87797     10.62516        -0.023299      0.167568      0.475158
O      15.55629     13.54198     10.77580        -0.158557      0.058027      0.011992
O       3.73733      6.22042      2.40216         1.224452     -1.219464      0.115254
O       3.92987      5.84483     14.75977        -0.630104      0.056559      0.153835
O      15.50632      5.74388      2.67036         0.744004      0.012856     -0.667132
O      15.53049      5.76642     15.02044         0.187010     -0.082222     -0.410348
O       3.95402      5.75739      6.39900        -0.350061     -0.275344      0.796952
O      15.60166      5.83940      6.66751         0.216327     -0.121733     -0.104572
O       3.87565      5.89852     10.85897         0.112375     -0.009586      0.098906
O      15.58552      5.84026     10.65326        -0.125177     -0.394147     -0.208854
O       3.83676      9.83313      2.65067         0.441602     -0.487596     -0.354976
O       3.76936      9.53598     14.98179         0.843812      0.747095     -0.061431
O      15.48863      9.79641      2.71099         0.625067      0.401849     -0.330324
O       0.00305      9.68839     15.05869        -0.692488     -0.155936      0.513078
O       3.87542      9.67460      6.63585         0.064828      0.539084     -0.031025
O      15.59736      9.66060      6.66843         0.407994      0.414014     -0.652078
O       3.83762      9.79987     10.87773         0.156569     -0.753705     -0.263934
O       0.00191      9.88611     10.67878        -0.110874     -0.229959     -0.080519
O       7.76994      2.07935      2.60569        -1.481170     -0.159780     -0.514733
O       7.81624      1.81749     14.99421        -0.575453      0.155845      0.431511
O       7.70174     13.59649      2.61628         0.335438      0.028135      0.027133
O       7.67503     13.59983     14.90464         0.098323     -0.359157      0.123762
O       7.82213      2.02500      6.63992        -0.979861     -0.932252     -0.264131
O       7.75197     13.71562      6.54614         0.545318     -0.322872     -0.158032
O       7.84774      1.94189     10.74780        -0.497472      0.008150     -0.063566
O       7.73594     13.60988     10.93504         0.156779     -0.296131      0.194645
O       7.63953      5.90494      2.23600         0.527018     -0.669308      0.474264
O       7.88901      5.61298     15.22357        -1.244867      0.563737     -0.439339
O       7.79058      6.00131      6.68837        -1.241789     -0.424929      0.096718
O       7.75164      5.95555     10.64514        -0.271027     -0.187546      0.240597
O       7.71527     10.05534      2.34532         0.635649     -0.726754      0.166620
O       7.74197      9.88688     14.91181         0.327515      0.012758     -0.124596
O       7.74962      9.62300      6.76142         0.842207      0.026496     -0.139872
O       7.69465      9.80126     10.84430         0.436559     -0.073334     -0.030461
O      11.65169      1.96906      2.60790        -0.541916      0.087740     -0.498245
O      11.66641      1.75248     14.92854         0.052452      0.206672      0.264745
O      11.62042     13.76097      2.50456         0.316225      0.251633     -0.510386
O      11.68694     13.62108     15.08165         0.151043      0.247678      0.142887
O      11.69000      1.92529      6.50945        -0.638726      0.102508      0.263570
O      11.65828     13.47050      6.76972        -0.320782      0.767200     -0.702811
O      11.67350      1.87850     10.88044        -0.500035      0.352384     -0.443121
O      11.58112     13.65864     10.64828         1.340430      0.132395     -0.077432
O      11.57450      5.89910      2.52104        -0.447391     -0.170379     -0.340719
O      11.60323      5.92548     14.92802         0.648300     -0.347947     -0.144459
O      11.66065      5.99384      6.46475        -0.198689     -0.745300      0.617189
O      11.61800      5.85940     10.94767         1.035421     -0.515507     -1.082918
O      11.62242      9.72492      2.42985        -1.011293      0.010077      0.367573
O      11.65289      9.71056     14.93611         0.175198     -0.302597      0.029115
O      11.70923      9.66737      6.51329        -0.483611      0.214190      0.343500
O      11.75629      9.55912     10.85515        -0.530963      0.538391     -0.168671
O       2.09732      3.90718      2.46817        -0.626482      1.022118     -0.149005
O       1.87891      3.90336     14.81959         0.669939      0.814522      0.494066
O       1.84799      0.03850      2.54023        -0.093625      0.190954      0.238396
O       1.61872      0.04000     14.70492         0.272760     -0.024965      0.491690
O      13.55601      3.90938      2.71604         0.048674     -0.507386     -0.242816
O      13.52803      3.81340     14.91423        -0.478256      1.042283     -0.242518
O      13.60818      0.13252      2.40428         0.046372     -0.798573      0.126113
O      13.73294      0.00757     14.80262        -0.179928     -0.179483      0.491177
O       1.88314      3.86205      6.80313         0.443867     -0.343751     -0.617405
O       1.94296     15.59206      6.53298         0.325352      0.782338      0.515510
O      13.65560      3.89438      6.66794         0.015958     -0.324701     -0.276804
O      13.48108     15.55306      6.74278         0.467811      0.319412     -0.252357
O       1.94941      3.90518     10.79659        -0.024743      0.143754     -0.283079
O       1.86542     15.53997     10.68616         0.183416      0.061063      0.587704
O      13.63061      3.84260     10.76668        -0.188592      1.053923     -0.057855
O      13.62862     15.56118     10.65004        -0.080355     -0.203566      0.350576
O       1.79275      7.84222      2.57732        -0.412715     -0.612676      0.287004
O       1.85278      7.69465     14.97539         0.013571      0.577127     -0.292490
O      13.69408      7.78365      2.56970        -0.553801     -0.513914     -0.096590
O      13.66216      7.73686     15.12733        -0.327594     -0.436049     -0.258217
O       1.95748      7.67970      6.50103         0.431898      1.121091      0.373079
O      13.62903      7.77983      6.51244         0.361656      0.243456      0.478002
O       1.90574      7.80070     10.69531         0.145140      0.428656     -0.030858
O      13.72714      7.76017     10.85833        -0.259732     -0.172656     -0.517418
O       1.86245     11.73474      2.27811        -0.423699      0.198850      0.579506
O       1.82012     11.68211     15.07353         0.650650      0.149404     -0.253120
O      13.55154     11.79963      2.32838        -0.313254      0.283385      0.488411
O      13.65385     11.64356     15.15392        -0.366612     -0.298187     -0.458413
O       1.80044     11.67076      6.64422         0.494449     -0.512097      0.099065
O      13.71252     11.65045      6.51000         0.036585      0.368166      0.083686
O       2.07772     11.65449     10.75771        -0.196543      0.583665     -0.116675
O      13.49712     11.64691     10.90886         0.236166     -0.121347     -0.558974
O       5.56374      3.95500      2.32683         0.377859     -0.544279      0.210029
O       5.77862      3.82586     14.97194         0.172974      0.271499      0.525881
O       5.75850     15.58864      2.52146         0.024527      1.180570      0.051595
O       5.75798     15.50727     14.99692        -0.153715      0.851813      0.287903
O       5.88460      3.86678      6.63638         0.036047      1.017517     -0.172707
O       5.86701     15.56486      6.57504        -0.271060      1.043882      0.387881
O       5.83225      3.98219     10.56761        -0.208136     -0.830123      0.569341
O       6.02076      0.06077     10.88741        -0.868959     -0.154768     -0.801801
O       5.86070      7.91889      2.46278        -0.146865     -0.263787      0.046754
O       5.94491      7.86892     14.95745         0.037720     -0.825937      0.000850
O       5.71996      7.76450      6.62293         0.111682     -0.223484     -0.057632
O       5.85219      7.80101     11.01257        -0.650720      0.762577     -0.346821
O       5.68362     11.74880      2.62330         0.312168     -0.139616      0.481177
O       5.58040     11.66429     15.00637         0.196200      0.600949     -0.559615
O       5.88706     11.63419      6.63964        -0.399652      0.426642      0.054653
O       5.81434     11.72015     10.82977        -0.236474      0.217723     -0.003572
O       9.58007      3.95601      2.50169         0.361453     -0.185750     -0.159013
O       9.77073      3.73725     14.86108         0.029918      0.702423     -0.093884
O       9.43147      0.01803      2.33460         0.638694     -0.169039      0.029973
O       9.70118     15.47098     15.04193        -0.007288      0.600889      0.162441
O       9.56071      3.90141      6.58138         1.259232      0.002172     -0.639245
O       9.68402     15.54622      6.85994         0.288092      0.482655     -0.497093
O       9.62262      3.96378     10.97271         0.793322     -0.817274     -0.710359
O       9.68207     15.47666     10.74469        -0.316679      2.051181     -0.113373
O       9.47955      7.81091      2.22047         0.238931      0.702734      0.626006
O       9.57958      7.79633     14.94289        -0.060989     -0.101327     -0.058237
O       9.78200      7.79799      6.68989        -0.398539      0.325670      0.406274
O       9.70785      7.83501     10.74080         0.025513     -0.175936     -0.103249
O       9.69077     11.70160      2.57003         0.545775      0.274410      0.157043
O       9.81405     11.68847     15.03402        -0.384032     -0.429363     -0.547063
O       9.69392     11.63692      6.67935        -0.449077     -0.047590     -0.871015
O       9.82235     11.65669     10.85984        -0.323997     -0.525359     -0.001385
