  # total energy = -7893.80323495 
CRSYTAL
PRIMVEC
    15.6080000000000005    0.0000000000000000    0.0000000000000000
     0.0000000000000000   15.6080000000000005    0.0000000000000000
     0.0000000000000000    0.0000000000000000   16.6239999999999988
PRESSURE
-1.82773 -1.82499 -0.700133 -0.089991 -0.085605 0.087031
PRIMCOORD
320 1
Pb       3.88211      3.88211      4.12735        -0.022632     -0.022434      0.013932
Pb       3.88286      3.88286     16.59717        -0.025144     -0.024865      0.020586
Pb       3.88211     15.58810      4.12735        -0.022672     -0.022435      0.013936
Pb       3.88286     15.58887     16.59716        -0.025135     -0.024830      0.020564
Pb      15.58811      3.88210      4.12735        -0.022642     -0.022451      0.013946
Pb      15.58886      3.88286     16.59716        -0.025162     -0.024830      0.020546
Pb      15.58811     15.58811      4.12735        -0.022652     -0.022470      0.013938
Pb      15.58887     15.58886     16.59716        -0.025120     -0.024825      0.020546
Pb       3.88286      3.88286      8.28517        -0.025154     -0.024872      0.020589
Pb       3.88286     15.58886      8.28517        -0.025142     -0.024829      0.020563
Pb      15.58886      3.88286      8.28517        -0.025153     -0.024824      0.020553
Pb      15.58887     15.58886      8.28516        -0.025109     -0.024833      0.020551
Pb       3.88211      3.88211     12.43935        -0.022622     -0.022437      0.013921
Pb       3.88211     15.58810     12.43935        -0.022661     -0.022435      0.013927
Pb      15.58811      3.88210     12.43935        -0.022654     -0.022449      0.013941
Pb      15.58811     15.58811     12.43935        -0.022653     -0.022474      0.013943
Pb       3.88211      7.78410      4.12735        -0.022674     -0.022487      0.013966
Pb       3.88286      7.78486     16.59716        -0.025131     -0.024814      0.020524
Pb      15.58811      7.78411      4.12735        -0.022621     -0.022452      0.013905
Pb      15.58886      7.78486     16.59716        -0.025143     -0.024810      0.020597
Pb       3.88286      7.78486      8.28516        -0.025128     -0.024821      0.020527
Pb      15.58886      7.78486      8.28517        -0.025161     -0.024828      0.020604
Pb       3.88211      7.78410     12.43935        -0.022678     -0.022482      0.013968
Pb      15.58811      7.78411     12.43935        -0.022626     -0.022454      0.013907
Pb       3.88211     11.68611      4.12735        -0.022649     -0.022461      0.013910
Pb       3.88286     11.68686     16.59716        -0.025104     -0.024826      0.020590
Pb      15.58811     11.68610      4.12735        -0.022677     -0.022483      0.013942
Pb      15.58886     11.68686     16.59716        -0.025104     -0.024791      0.020541
Pb       3.88286     11.68686      8.28516        -0.025099     -0.024815      0.020595
Pb      15.58886     11.68686      8.28516        -0.025118     -0.024789      0.020544
Pb       3.88211     11.68611     12.43935        -0.022653     -0.022465      0.013913
Pb      15.58811     11.68610     12.43935        -0.022677     -0.022494      0.013951
Pb       7.78411      3.88211      4.12735        -0.022651     -0.022442      0.013927
Pb       7.78486      3.88286     16.59717        -0.025123     -0.024829      0.020588
Pb       7.78410     15.58810      4.12735        -0.022691     -0.022493      0.013956
Pb       7.78487     15.58886     16.59716        -0.025085     -0.024800      0.020523
Pb       7.78486      3.88286      8.28517        -0.025126     -0.024834      0.020586
Pb       7.78486     15.58886      8.28516        -0.025098     -0.024812      0.020528
Pb       7.78411      3.88211     12.43935        -0.022649     -0.022447      0.013917
Pb       7.78410     15.58810     12.43935        -0.022703     -0.022486      0.013954
Pb       7.78411      7.78410      4.12735        -0.022680     -0.022466      0.013923
Pb       7.78486      7.78486     16.59716        -0.025117     -0.024794      0.020576
Pb       7.78486      7.78486      8.28516        -0.025113     -0.024789      0.020573
Pb       7.78411      7.78410     12.43935        -0.022680     -0.022464      0.013924
Pb       7.78411     11.68611      4.12735        -0.022675     -0.022474      0.013914
Pb       7.78486     11.68686     16.59716        -0.025078     -0.024793      0.020573
Pb       7.78486     11.68686      8.28516        -0.025076     -0.024790      0.020576
Pb       7.78411     11.68611     12.43935        -0.022681     -0.022479      0.013909
Pb      11.68611      3.88210      4.12735        -0.022681     -0.022479      0.013952
Pb      11.68686      3.88286     16.59716        -0.025114     -0.024804      0.020538
Pb      11.68611     15.58811      4.12735        -0.022662     -0.022460      0.013892
Pb      11.68686     15.58886     16.59716        -0.025088     -0.024785      0.020599
Pb      11.68686      3.88286      8.28516        -0.025119     -0.024799      0.020534
Pb      11.68686     15.58886      8.28516        -0.025095     -0.024802      0.020588
Pb      11.68611      3.88210     12.43935        -0.022685     -0.022476      0.013957
Pb      11.68611     15.58811     12.43935        -0.022659     -0.022455      0.013904
Pb      11.68611      7.78411      4.12735        -0.022661     -0.022496      0.013930
Pb      11.68687      7.78486     16.59716        -0.025086     -0.024798      0.020555
Pb      11.68687      7.78486      8.28516        -0.025089     -0.024794      0.020549
Pb      11.68611      7.78411     12.43935        -0.022661     -0.022501      0.013928
Pb      11.68611     11.68610      4.12736        -0.022714     -0.022488      0.013940
Pb      11.68686     11.68687     16.59716        -0.025075     -0.024760      0.020545
Pb      11.68686     11.68687      8.28516        -0.025078     -0.024768      0.020537
Pb      11.68611     11.68610     12.43936        -0.022710     -0.022495      0.013935
Ti       1.92657      1.92665      2.21818        -0.055099     -0.053211     -0.015438
Ti       1.92671      1.92687     14.68624        -0.048274     -0.048389      0.005447
Ti       1.92657     13.63265      2.21819        -0.055088     -0.053230     -0.015589
Ti       1.92671     13.63286     14.68624        -0.048279     -0.048411      0.005577
Ti      13.63257      1.92665      2.21819        -0.055109     -0.053221     -0.015755
Ti      13.63271      1.92686     14.68623        -0.048255     -0.048371      0.005798
Ti      13.63257     13.63265      2.21819        -0.055113     -0.053198     -0.015676
Ti      13.63271     13.63287     14.68623        -0.048271     -0.048374      0.005690
Ti       1.92671      1.92687      6.37424        -0.048274     -0.048402      0.005488
Ti       1.92671     13.63286      6.37424        -0.048280     -0.048384      0.005630
Ti      13.63271      1.92686      6.37423        -0.048252     -0.048368      0.005824
Ti      13.63271     13.63287      6.37423        -0.048281     -0.048376      0.005747
Ti       1.92657      1.92665     10.53018        -0.055106     -0.053198     -0.015437
Ti       1.92657     13.63265     10.53019        -0.055088     -0.053239     -0.015570
Ti      13.63257      1.92665     10.53019        -0.055123     -0.053222     -0.015764
Ti      13.63257     13.63265     10.53019        -0.055107     -0.053214     -0.015698
Ti       1.92657      5.82865      2.21819        -0.055099     -0.053221     -0.015614
Ti       1.92671      5.82886     14.68624        -0.048276     -0.048376      0.005646
Ti      13.63257      5.82865      2.21818        -0.055095     -0.053227     -0.015552
Ti      13.63271      5.82886     14.68623        -0.048267     -0.048376      0.005528
Ti       1.92671      5.82886      6.37424        -0.048302     -0.048393      0.005603
Ti      13.63271      5.82886      6.37424        -0.048271     -0.048375      0.005505
Ti       1.92657      5.82865     10.53019        -0.055101     -0.053209     -0.015608
Ti      13.63257      5.82865     10.53018        -0.055087     -0.053237     -0.015447
Ti       1.92657      9.73066      2.21819        -0.055099     -0.053242     -0.015644
Ti       1.92671      9.73086     14.68624        -0.048253     -0.048351      0.005647
Ti      13.63257      9.73065      2.21819        -0.055098     -0.053229     -0.015806
Ti      13.63271      9.73086     14.68623        -0.048268     -0.048386      0.005783
Ti       1.92671      9.73086      6.37424        -0.048241     -0.048372      0.005620
Ti      13.63271      9.73086      6.37423        -0.048274     -0.048393      0.005800
Ti       1.92657      9.73065     10.53019        -0.055125     -0.053249     -0.015607
Ti      13.63257      9.73065     10.53019        -0.055096     -0.053217     -0.015814
Ti       5.82857      1.92665      2.21819        -0.055126     -0.053237     -0.015592
Ti       5.82871      1.92686     14.68624        -0.048239     -0.048379      0.005587
Ti       5.82857     13.63265      2.21819        -0.055122     -0.053217     -0.015835
Ti       5.82871     13.63286     14.68623        -0.048250     -0.048372      0.005797
Ti       5.82871      1.92686      6.37424        -0.048250     -0.048388      0.005538
Ti       5.82871     13.63287      6.37423        -0.048265     -0.048400      0.005840
Ti       5.82857      1.92665     10.53018        -0.055107     -0.053232     -0.015520
Ti       5.82857     13.63265     10.53019        -0.055115     -0.053219     -0.015756
Ti       5.82857      5.82865      2.21818        -0.055129     -0.053238     -0.015538
Ti       5.82871      5.82886     14.68624        -0.048233     -0.048355      0.005554
Ti       5.82871      5.82886      6.37424        -0.048254     -0.048349      0.005607
Ti       5.82857      5.82865     10.53018        -0.055120     -0.053225     -0.015528
Ti       5.82857      9.73065      2.21819        -0.055116     -0.053209     -0.015546
Ti       5.82871      9.73086     14.68623        -0.048239     -0.048372      0.005581
Ti       5.82871      9.73087      6.37423        -0.048254     -0.048384      0.005567
Ti       5.82857      9.73065     10.53018        -0.055118     -0.053213     -0.015549
Ti       9.73057      1.92665      2.21819        -0.055097     -0.053212     -0.015701
Ti       9.73071      1.92687     14.68624        -0.048257     -0.048393      0.005620
Ti       9.73057     13.63265      2.21819        -0.055127     -0.053208     -0.015666
Ti       9.73071     13.63286     14.68623        -0.048260     -0.048387      0.005709
Ti       9.73071      1.92687      6.37423        -0.048266     -0.048405      0.005697
Ti       9.73071     13.63286      6.37423        -0.048237     -0.048378      0.005697
Ti       9.73057      1.92665     10.53019        -0.055110     -0.053196     -0.015663
Ti       9.73057     13.63265     10.53019        -0.055133     -0.053228     -0.015659
Ti       9.73057      5.82865      2.21819        -0.055128     -0.053247     -0.015719
Ti       9.73071      5.82886     14.68623        -0.048242     -0.048363      0.005773
Ti       9.73071      5.82886      6.37423        -0.048216     -0.048361      0.005711
Ti       9.73057      5.82865     10.53019        -0.055131     -0.053241     -0.015716
Ti       9.73057      9.73065      2.21819        -0.055109     -0.053224     -0.015857
Ti       9.73071      9.73086     14.68623        -0.048259     -0.048371      0.005756
Ti       9.73071      9.73086      6.37423        -0.048262     -0.048370      0.005893
Ti       9.73057      9.73065     10.53019        -0.055108     -0.053227     -0.015749
O       1.93312      1.93310      0.43979        -0.013696     -0.013799      0.008856
O       1.93412      1.93409     12.90870        -0.005939     -0.005929     -0.014613
O       1.93312     13.63910      0.43979        -0.013710     -0.013788      0.008989
O       1.93412     13.64009     12.90870        -0.005925     -0.005933     -0.014694
O      13.63912      1.93310      0.43978        -0.013703     -0.013790      0.009097
O      13.64012      1.93409     12.90870        -0.005935     -0.005940     -0.014788
O      13.63912     13.63910      0.43979        -0.013703     -0.013799      0.009018
O      13.64012     13.64009     12.90870        -0.005932     -0.005930     -0.014776
O       1.93412      1.93409      4.59670        -0.005938     -0.005931     -0.014613
O       1.93412     13.64009      4.59670        -0.005929     -0.005937     -0.014743
O      13.64012      1.93409      4.59670        -0.005936     -0.005941     -0.014848
O      13.64012     13.64009      4.59670        -0.005930     -0.005934     -0.014795
O       1.93312      1.93310      8.75179        -0.013696     -0.013799      0.008893
O       1.93312     13.63910      8.75179        -0.013708     -0.013790      0.008938
O      13.63912      1.93310      8.75178        -0.013704     -0.013791      0.009073
O      13.63912     13.63910      8.75179        -0.013704     -0.013799      0.009054
O       1.93312      5.83510      0.43979        -0.013710     -0.013801      0.008954
O       1.93412      5.83609     12.90870        -0.005925     -0.005931     -0.014686
O      13.63912      5.83510      0.43979        -0.013702     -0.013793      0.008935
O      13.64012      5.83609     12.90870        -0.005934     -0.005938     -0.014679
O       1.93412      5.83609      4.59670        -0.005928     -0.005930     -0.014702
O      13.64012      5.83609      4.59670        -0.005936     -0.005933     -0.014654
O       1.93312      5.83510      8.75179        -0.013707     -0.013800      0.008981
O      13.63912      5.83510      8.75179        -0.013705     -0.013793      0.008908
O       1.93312      9.73710      0.43979        -0.013699     -0.013793      0.008998
O       1.93412      9.73809     12.90870        -0.005939     -0.005939     -0.014693
O      13.63912      9.73710      0.43978        -0.013703     -0.013807      0.009131
O      13.64012      9.73809     12.90871        -0.005938     -0.005926     -0.014825
O       1.93412      9.73809      4.59670        -0.005939     -0.005935     -0.014687
O      13.64012      9.73809      4.59671        -0.005937     -0.005926     -0.014879
O       1.93312      9.73710      8.75179        -0.013698     -0.013794      0.008955
O      13.63912      9.73710      8.75179        -0.013701     -0.013803      0.009099
O       5.83512      1.93310      0.43979        -0.013712     -0.013785      0.008962
O       5.83612      1.93409     12.90870        -0.005934     -0.005939     -0.014648
O       5.83512     13.63910      0.43978        -0.013711     -0.013798      0.009082
O       5.83612     13.64009     12.90870        -0.005933     -0.005930     -0.014810
O       5.83612      1.93409      4.59670        -0.005933     -0.005940     -0.014666
O       5.83612     13.64009      4.59670        -0.005932     -0.005931     -0.014822
O       5.83512      1.93310      8.75179        -0.013711     -0.013787      0.008902
O       5.83512     13.63910      8.75178        -0.013709     -0.013798      0.009084
O       5.83512      5.83510      0.43979        -0.013708     -0.013796      0.008930
O       5.83612      5.83609     12.90870        -0.005935     -0.005939     -0.014682
O       5.83612      5.83609      4.59670        -0.005932     -0.005935     -0.014676
O       5.83512      5.83510      8.75179        -0.013707     -0.013797      0.008934
O       5.83512      9.73710      0.43979        -0.013710     -0.013806      0.008964
O       5.83612      9.73809     12.90870        -0.005929     -0.005928     -0.014664
O       5.83612      9.73809      4.59670        -0.005930     -0.005928     -0.014697
O       5.83512      9.73710      8.75179        -0.013710     -0.013803      0.008942
O       9.73712      1.93310      0.43978        -0.013714     -0.013800      0.009048
O       9.73812      1.93409     12.90870        -0.005926     -0.005928     -0.014758
O       9.73712     13.63910      0.43978        -0.013701     -0.013793      0.009037
O       9.73812     13.64009     12.90870        -0.005939     -0.005938     -0.014771
O       9.73812      1.93409      4.59670        -0.005926     -0.005929     -0.014741
O       9.73812     13.64009      4.59670        -0.005937     -0.005939     -0.014776
O       9.73712      1.93310      8.75178        -0.013713     -0.013797      0.009032
O       9.73712     13.63910      8.75178        -0.013703     -0.013792      0.009030
O       9.73712      5.83510      0.43979        -0.013702     -0.013800      0.009033
O       9.73812      5.83609     12.90870        -0.005940     -0.005927     -0.014758
O       9.73812      5.83609      4.59670        -0.005937     -0.005928     -0.014764
O       9.73712      5.83510      8.75179        -0.013703     -0.013801      0.009011
O       9.73712      9.73710      0.43978        -0.013715     -0.013794      0.009125
O       9.73812      9.73809     12.90870        -0.005926     -0.005936     -0.014827
O       9.73812      9.73809      4.59671        -0.005926     -0.005934     -0.014866
O       9.73712      9.73710      8.75178        -0.013715     -0.013796      0.009090
O       3.88092      1.93289      2.54995        -0.022534     -0.017568      0.009319
O       3.88124      1.93344     15.01935        -0.018514     -0.010777      0.014593
O       3.88092     13.63889      2.54995        -0.022555     -0.017568      0.009356
O       3.88124     13.63944     15.01935        -0.018484     -0.010778      0.014564
O      15.58692      1.93289      2.54995        -0.022534     -0.017570      0.009336
O      15.58724      1.93344     15.01935        -0.018482     -0.010780      0.014565
O      15.58692     13.63889      2.54995        -0.022541     -0.017570      0.009348
O      15.58724     13.63944     15.01935        -0.018496     -0.010774      0.014577
O       3.88124      1.93344      6.70735        -0.018484     -0.010778      0.014593
O       3.88124     13.63944      6.70735        -0.018497     -0.010776      0.014560
O      15.58724      1.93344      6.70735        -0.018505     -0.010778      0.014567
O      15.58724     13.63944      6.70735        -0.018478     -0.010778      0.014572
O       3.88092      1.93289     10.86195        -0.022539     -0.017568      0.009315
O       3.88092     13.63889     10.86195        -0.022535     -0.017566      0.009352
O      15.58691      1.93289     10.86195        -0.022517     -0.017568      0.009339
O      15.58692     13.63889     10.86195        -0.022558     -0.017567      0.009348
O       3.88092      5.83489      2.54995        -0.022534     -0.017565      0.009338
O       3.88124      5.83544     15.01935        -0.018492     -0.010783      0.014575
O      15.58692      5.83489      2.54995        -0.022545     -0.017565      0.009331
O      15.58724      5.83544     15.01935        -0.018475     -0.010784      0.014583
O       3.88124      5.83544      6.70735        -0.018492     -0.010785      0.014576
O      15.58724      5.83544      6.70735        -0.018477     -0.010781      0.014582
O       3.88092      5.83489     10.86195        -0.022528     -0.017568      0.009335
O      15.58692      5.83489     10.86195        -0.022550     -0.017566      0.009326
O       3.88092      9.73689      2.54995        -0.022528     -0.017566      0.009332
O       3.88124      9.73744     15.01935        -0.018509     -0.010783      0.014578
O      15.58692      9.73689      2.54995        -0.022545     -0.017565      0.009360
O      15.58724      9.73744     15.01935        -0.018492     -0.010782      0.014558
O       3.88124      9.73744      6.70735        -0.018518     -0.010782      0.014580
O      15.58724      9.73744      6.70735        -0.018485     -0.010783      0.014560
O       3.88092      9.73689     10.86195        -0.022527     -0.017566      0.009331
O      15.58692      9.73689     10.86195        -0.022539     -0.017567      0.009364
O       7.78292      1.93289      2.54995        -0.022538     -0.017569      0.009339
O       7.78324      1.93344     15.01935        -0.018506     -0.010777      0.014578
O       7.78292     13.63889      2.54995        -0.022525     -0.017569      0.009365
O       7.78324     13.63944     15.01935        -0.018516     -0.010780      0.014551
O       7.78324      1.93344      6.70735        -0.018510     -0.010776      0.014576
O       7.78324     13.63944      6.70735        -0.018514     -0.010778      0.014549
O       7.78292      1.93289     10.86195        -0.022530     -0.017567      0.009336
O       7.78292     13.63889     10.86195        -0.022520     -0.017568      0.009359
O       7.78292      5.83489      2.54995        -0.022536     -0.017564      0.009349
O       7.78324      5.83544     15.01935        -0.018517     -0.010781      0.014565
O       7.78324      5.83544      6.70735        -0.018503     -0.010783      0.014567
O       7.78292      5.83489     10.86195        -0.022540     -0.017567      0.009345
O       7.78292      9.73689      2.54995        -0.022529     -0.017567      0.009347
O       7.78324      9.73744     15.01935        -0.018498     -0.010782      0.014563
O       7.78324      9.73744      6.70735        -0.018491     -0.010782      0.014561
O       7.78292      9.73689     10.86195        -0.022531     -0.017567      0.009343
O      11.68492      1.93289      2.54995        -0.022541     -0.017570      0.009357
O      11.68524      1.93344     15.01935        -0.018486     -0.010781      0.014552
O      11.68492     13.63889      2.54995        -0.022531     -0.017570      0.009355
O      11.68524     13.63944     15.01935        -0.018488     -0.010777      0.014566
O      11.68524      1.93344      6.70735        -0.018490     -0.010777      0.014549
O      11.68524     13.63944      6.70735        -0.018497     -0.010780      0.014561
O      11.68492      1.93289     10.86195        -0.022557     -0.017569      0.009362
O      11.68492     13.63889     10.86195        -0.022538     -0.017569      0.009351
O      11.68492      5.83489      2.54995        -0.022534     -0.017565      0.009344
O      11.68524      5.83544     15.01935        -0.018506     -0.010782      0.014571
O      11.68524      5.83544      6.70735        -0.018516     -0.010780      0.014571
O      11.68492      5.83489     10.86195        -0.022531     -0.017566      0.009336
O      11.68492      9.73689      2.54995        -0.022550     -0.017566      0.009375
O      11.68524      9.73744     15.01935        -0.018487     -0.010780      0.014542
O      11.68524      9.73744      6.70735        -0.018489     -0.010782      0.014539
O      11.68492      9.73689     10.86195        -0.022551     -0.017568      0.009377
O       1.93292      3.88082      2.54995        -0.017082     -0.023014      0.009278
O       1.93349      3.88123     15.01934        -0.012317     -0.019314      0.015052
O       1.93292     15.58682      2.54995        -0.017085     -0.023002      0.009278
O       1.93349     15.58723     15.01933        -0.012318     -0.019283      0.015061
O      13.63892      3.88082      2.54995        -0.017086     -0.023005      0.009291
O      13.63949      3.88123     15.01934        -0.012314     -0.019324      0.015036
O      13.63892     15.58682      2.54995        -0.017086     -0.023001      0.009314
O      13.63949     15.58723     15.01934        -0.012315     -0.019308      0.015016
O       1.93349      3.88123      6.70734        -0.012313     -0.019302      0.015053
O       1.93349     15.58723      6.70733        -0.012314     -0.019310      0.015057
O      13.63949      3.88123      6.70734        -0.012316     -0.019329      0.015038
O      13.63949     15.58723      6.70734        -0.012316     -0.019295      0.015018
O       1.93292      3.88082     10.86195        -0.017082     -0.023018      0.009279
O       1.93292     15.58682     10.86195        -0.017083     -0.022987      0.009275
O      13.63892      3.88082     10.86195        -0.017083     -0.022984      0.009293
O      13.63892     15.58682     10.86195        -0.017085     -0.023011      0.009320
O       1.93292      7.78282      2.54995        -0.017082     -0.022991      0.009298
O       1.93349      7.78323     15.01934        -0.012316     -0.019323      0.015037
O      13.63892      7.78282      2.54995        -0.017087     -0.022987      0.009299
O      13.63949      7.78323     15.01934        -0.012316     -0.019305      0.015042
O       1.93349      7.78323      6.70734        -0.012316     -0.019308      0.015039
O      13.63949      7.78323      6.70734        -0.012317     -0.019301      0.015042
O       1.93292      7.78282     10.86195        -0.017083     -0.022995      0.009298
O      13.63892      7.78282     10.86195        -0.017086     -0.023000      0.009298
O       1.93292     11.68482      2.54995        -0.017085     -0.022990      0.009299
O       1.93349     11.68523     15.01934        -0.012317     -0.019323      0.015047
O      13.63892     11.68482      2.54995        -0.017086     -0.023005      0.009322
O      13.63949     11.68523     15.01934        -0.012317     -0.019305      0.015020
O       1.93349     11.68523      6.70734        -0.012316     -0.019325      0.015043
O      13.63949     11.68523      6.70734        -0.012316     -0.019316      0.015022
O       1.93292     11.68482     10.86195        -0.017083     -0.022999      0.009296
O      13.63892     11.68482     10.86195        -0.017086     -0.022998      0.009325
O       5.83492      3.88082      2.54995        -0.017079     -0.023004      0.009285
O       5.83549      3.88123     15.01934        -0.012327     -0.019305      0.015054
O       5.83492     15.58682      2.54995        -0.017081     -0.022985      0.009311
O       5.83549     15.58723     15.01934        -0.012327     -0.019311      0.015026
O       5.83549      3.88123      6.70734        -0.012325     -0.019324      0.015054
O       5.83549     15.58723      6.70734        -0.012326     -0.019291      0.015026
O       5.83492      3.88082     10.86195        -0.017082     -0.022988      0.009278
O       5.83492     15.58682     10.86195        -0.017082     -0.022994      0.009303
O       5.83492      7.78282      2.54995        -0.017080     -0.022988      0.009284
O       5.83549      7.78323     15.01933        -0.012324     -0.019331      0.015051
O       5.83549      7.78323      6.70733        -0.012322     -0.019326      0.015050
O       5.83492      7.78282     10.86195        -0.017080     -0.023006      0.009277
O       5.83492     11.68482      2.54995        -0.017081     -0.023018      0.009308
O       5.83549     11.68523     15.01934        -0.012323     -0.019297      0.015023
O       5.83549     11.68523      6.70734        -0.012322     -0.019302      0.015025
O       5.83492     11.68482     10.86195        -0.017081     -0.023009      0.009299
O       9.73692      3.88082      2.54995        -0.017081     -0.023014      0.009307
O       9.73749      3.88123     15.01934        -0.012322     -0.019300      0.015034
O       9.73692     15.58682      2.54995        -0.017079     -0.022994      0.009301
O       9.73749     15.58723     15.01934        -0.012317     -0.019300      0.015042
O       9.73749      3.88123      6.70734        -0.012323     -0.019301      0.015028
O       9.73749     15.58723      6.70734        -0.012322     -0.019292      0.015035
O       9.73692      3.88082     10.86195        -0.017082     -0.023014      0.009306
O       9.73692     15.58682     10.86195        -0.017081     -0.022999      0.009300
O       9.73692      7.78282      2.54995        -0.017081     -0.022974      0.009318
O       9.73749      7.78323     15.01934        -0.012323     -0.019323      0.015018
O       9.73749      7.78323      6.70734        -0.012323     -0.019324      0.015014
O       9.73692      7.78282     10.86195        -0.017080     -0.022984      0.009317
O       9.73692     11.68482      2.54995        -0.017080     -0.023015      0.009316
O       9.73749     11.68523     15.01934        -0.012320     -0.019314      0.015027
O       9.73749     11.68523      6.70734        -0.012322     -0.019324      0.015018
O       9.73692     11.68482     10.86195        -0.017081     -0.022998      0.009311
