  # total energy = -7880.99557013 
CRSYTAL
PRIMVEC
    15.6080000000000005    0.0000000000000000    0.0000000000000000
     0.0000000000000000   15.6080000000000005    0.0000000000000000
     0.0000000000000000    0.0000000000000000   16.6239999999999988
PRESSURE
-0.346353 -0.345456 1.02347 -0.162122 -0.222498 -0.051045
PRIMCOORD
320 1
Pb       4.04158      4.01341      4.24807        -0.831294     -0.350488     -0.231997
Pb       3.96130      4.00209     16.49559         0.044313     -0.686896      0.952723
Pb       3.92831      0.12022      4.03378        -0.127308     -0.967179     -0.029294
Pb       3.83162      0.02808     16.43539         0.162484     -0.303105      0.821793
Pb       0.08353      3.85087      4.17548         0.083344      0.061517     -0.269903
Pb      15.58990      3.75832     16.60708        -0.336805      0.450774      0.223581
Pb      15.45482      0.02723      4.09014         0.385207     -0.515383      0.502782
Pb      15.53083      0.04087     16.58016         0.272669     -0.461660     -0.138461
Pb       3.80381      3.80809      8.24112         0.483700      0.264865     -0.046839
Pb       3.95702     15.56030      8.10102        -0.929420      0.219297      1.035007
Pb      15.53190      3.89010      8.34579         0.067030     -0.093560     -0.526706
Pb       0.00102     15.55335      8.23654         0.206517     -0.124414      0.116608
Pb       3.72569      3.90217     12.62589         0.501518      0.118248     -0.420572
Pb       3.88425     15.50413     12.54827        -0.058689      0.203340     -0.170144
Pb       0.00001      3.98389     12.62361        -0.115318     -0.218850     -0.437817
Pb       0.17718     15.55554     12.46040        -0.539158      0.121746      0.032563
Pb       3.81312      7.89539      4.02307         0.234500     -0.465200      0.186244
Pb       3.96821      7.68549     16.58293        -0.315180      0.579008      0.038151
Pb       0.09724      7.85005      4.16058        -0.643187     -0.306858     -0.494983
Pb      15.50272      7.73584     16.59030         0.373885      0.625760      0.475099
Pb       3.83346      7.72855      8.33184        -0.199771      0.698898     -0.299321
Pb      15.34645      7.68710      8.52197         0.252853      0.632521     -0.493007
Pb       3.98096      7.82046     12.36163        -0.132456     -0.272677      0.398425
Pb      15.41757      7.75170     12.51812         0.720822      0.415525      0.144240
Pb       3.81293     11.68386      4.04369         0.184719      0.664933     -0.259117
Pb       3.94516     11.64088     16.57497        -0.557789     -0.018268      0.218281
Pb      15.56457     11.68574      4.11635        -0.016688      0.340877     -0.210921
Pb      15.51342     11.75778     16.57028         0.614941      0.023756      0.529669
Pb       3.85183     11.88258      8.28281         0.128763     -0.462365     -0.487860
Pb       0.09934     11.63911      8.11871        -0.694120      0.199746      0.655685
Pb       3.97507     11.58148     12.23074        -0.526719      0.207836      0.701895
Pb       0.11181     11.62277     12.42315         0.352135      0.024781     -0.030231
Pb       7.80159      3.66624      4.13310         0.116445      0.902803      0.370921
Pb       7.92148      3.97091     16.55052        -0.556298     -0.320141      0.580255
Pb       7.83027     15.47861      4.15625        -0.350320      0.065013     -0.742259
Pb       7.83907      0.13728     16.54859        -0.404704     -0.307295      0.282245
Pb       7.64148      3.79005      8.53151        -0.188991     -0.004890     -0.640084
Pb       7.79278      0.02243      8.20362        -0.242017      0.276056      1.038000
Pb       7.79306      3.57826     12.52068        -0.431714      0.744774     -0.044636
Pb       7.75785     15.48665     12.46982         0.096634     -0.172032     -0.460508
Pb       7.96295      7.83557      4.16927        -0.628897      0.073982      0.134666
Pb       7.64700      7.78554     16.57963         0.401273      0.004544      0.281732
Pb       7.82848      7.84141      8.14979         0.097858     -0.054247      0.188864
Pb       7.84676      7.62766     12.38549        -0.023321      0.452945     -0.316046
Pb       7.87911     11.61395      4.12302        -0.278628      0.170964     -0.388632
Pb       7.77063     11.85252     16.49798        -0.321886     -0.630895      0.764398
Pb       7.75847     11.70474      8.16930        -0.340692     -0.558738      0.375163
Pb       7.83949     11.57084     12.35534         0.009867      0.596534     -0.178043
Pb      11.77126      3.71335      4.27408        -0.649127      0.372326     -0.630800
Pb      11.70155      4.10715      0.31117         0.169569     -0.132683     -0.996388
Pb      11.39330     15.48447      4.13008         0.478884      0.173718     -0.079719
Pb      11.68791     15.58546     16.50034         0.097096     -0.031961      0.190224
Pb      11.66215      4.15110      8.43298        -0.057899     -0.487739     -0.537451
Pb      11.68658      0.19602      8.40516         0.013773     -0.491011     -0.076424
Pb      11.83628      3.75387     12.50255        -0.131885      0.316064      0.014179
Pb      11.53374     15.52670     12.36143         1.014972     -0.315591      0.493205
Pb      11.60027      7.69030      4.10743         0.438301      0.284227      0.158854
Pb      11.70269      7.87088      0.03199        -0.095856     -0.512074     -0.016878
Pb      11.65174      7.80869      8.34355        -0.118385      0.030128     -0.109638
Pb      11.47129      8.02095     12.50507         0.319288     -0.546863     -0.392944
Pb      11.86328     11.33362      4.17946        -0.842038      0.880054      0.554432
Pb      11.73402     11.63363     16.59636         0.096570      0.419453      0.406736
Pb      11.79067     11.90935      8.41838         0.199505     -0.711568     -0.127699
Pb      11.82489     11.77878     12.43731        -0.857850      0.193309      0.187765
Ti       1.89372      1.85768      2.26520         1.076381      1.063903     -0.513429
Ti       1.89478      1.97681     14.79847         0.714329     -1.105414     -0.549758
Ti       1.81420     13.66643      2.20459         1.081079     -1.033539      0.217230
Ti       1.95166     13.54424     14.63279         0.109012      0.930244     -0.051353
Ti      13.63762      1.87972      2.22425        -0.682900      0.134650     -0.257420
Ti      13.56624      1.98921     14.67706         0.598199     -0.112773     -0.962021
Ti      13.51104     13.60117      2.26425         0.689776     -0.393627      0.013585
Ti      13.61739     13.70798     14.58064        -0.851624     -0.001742     -0.780787
Ti       1.86551      2.00266      6.43924         0.027959     -0.338608     -0.685776
Ti       1.85367     13.71725      6.23410         0.418148      0.055984      0.342403
Ti      13.56590      1.92252      6.39922         0.694881      0.179545     -0.284524
Ti      13.58642     13.65338      6.30486         0.383028     -0.887649      0.064923
Ti       1.91611      2.02569     10.55114         0.651944     -0.564246     -0.024833
Ti       1.97783     13.72466     10.51970        -0.070868     -1.014937     -0.703004
Ti      13.72462      1.87731     10.55838        -0.305782     -0.502180      1.173026
Ti      13.71770     13.58870     10.48012        -0.301107      0.983083      2.606297
Ti       1.89539      5.82374      2.12651         0.428492     -0.498320      0.928140
Ti       1.87300      5.90686     14.74952         0.244841      0.293174     -0.877890
Ti      13.65270      5.79050      2.22146         0.666200      0.587718      0.160015
Ti      13.57610      5.92812     14.72272        -0.344496     -0.810388      0.327503
Ti       1.84487      5.98244      6.26975         0.443727     -0.471181      1.798860
Ti      13.59305      5.79853      6.28042         0.277097      0.137717      1.157648
Ti       1.88217      5.93219     10.61226         0.983593     -0.486444      0.841544
Ti      13.61402      5.83391     10.60240        -0.609023     -0.006613     -0.101690
Ti       1.87936      9.73388      2.14207         0.455476      1.114045      0.338308
Ti       1.90689      9.75850     14.71175         0.192311     -0.108838     -0.391482
Ti      13.74063      9.64516      2.19785        -0.888672      0.189524      0.668753
Ti      13.61787      9.80142     14.68113         0.793583     -0.534561     -0.406611
Ti       1.87960      9.77572      6.24733         0.592475     -0.279704      1.215736
Ti      13.58664      9.64683      6.49037         0.578043      1.036732     -0.510450
Ti       1.95675      9.65947     10.49298        -0.104822      0.837496      0.421793
Ti      13.67630      9.77501     10.68800        -0.808926     -0.250658     -2.158390
Ti       5.83244      1.98896      2.19038        -0.360155     -0.219240     -1.185177
Ti       5.84616      1.98501     14.70149        -0.587780     -0.484422     -0.255771
Ti       5.82175     13.67797      2.09445        -1.000209     -0.059304      1.854322
Ti       5.83956     13.65571     14.58949        -0.341067      0.097338     -0.024166
Ti       5.90539      1.87073      6.28306        -0.720579      1.821652      0.328160
Ti       5.84063     13.67382      6.26290        -0.791801     -1.365973      0.392950
Ti       5.71336      1.84335     10.62456         0.738531      0.524167     -0.851009
Ti       5.78812     13.62058     10.46892         0.658942     -0.211547      0.856660
Ti       5.85481      5.87067      2.32550        -0.490881     -0.353756     -0.772084
Ti       5.82030      5.90130     14.66311         0.092083     -0.675771      0.249818
Ti       5.75698      5.89668      6.36969         0.908557     -1.244784     -0.542302
Ti       5.83710      5.70257     10.62121        -0.181207     -0.150140      0.415462
Ti       5.81203      9.74680      2.22470         0.429051      0.301127      1.206391
Ti       5.90179      9.77457     14.60567        -0.982147      0.025412      0.945547
Ti       5.79943      9.70871      6.29273        -0.255663      0.879419      1.144893
Ti       5.95656      9.64652     10.42376        -0.039817     -0.157135      0.954757
Ti       9.77645      1.98632      2.16998        -0.556998     -0.243773      0.576299
Ti       9.79209      1.94082     14.74861        -0.254446      0.197554     -0.060308
Ti       9.67091     13.64340      2.06110        -0.108658     -0.495591      1.012844
Ti       9.73376     13.61029     14.70024         0.642060      0.415424     -1.083697
Ti       9.75526      1.94322      6.43821        -0.582870      0.620539     -0.827296
Ti       9.69487     13.63886      6.46245         1.070980     -0.412234      0.435060
Ti       9.76546      1.92275     10.55826        -0.538274     -0.551892     -0.154919
Ti       9.73583     13.61487     10.45422         0.136741     -0.416903      1.009483
Ti       9.72812      5.82709      2.25709        -0.436054     -0.626873      0.788702
Ti       9.71690      5.88687     14.68933         0.394416     -0.249945      1.000687
Ti       9.65526      5.77001      6.30997        -0.295387      0.128594     -0.516624
Ti       9.77554      5.67968     10.63911        -0.616332      1.183982     -0.509120
Ti       9.76006      9.77304      2.10898        -0.280744      0.079477      4.090757
Ti       9.74462      9.77131     14.71006        -0.186566     -0.590033      0.239650
Ti       9.81650      9.81518      6.32292        -0.712146     -0.538390      0.746806
Ti       9.78912      9.80625     10.37540        -0.492615     -0.186947      1.144985
O       1.89397      1.85365      0.44534        -0.249455      0.077553      0.615762
O       1.97206      1.93997     13.01018        -0.240469     -0.216311     -0.694281
O       1.92758     13.47352      0.45519        -0.261004      0.700601     -1.008723
O       2.06638     13.73566     12.82629        -0.814490     -0.561804      0.756947
O      13.67720      1.90601      0.43748        -0.195971     -0.041950     -0.102549
O      13.64003      1.99856     12.84999         0.188085      0.289383      1.521104
O      13.59111     13.36036      0.50098        -0.384368      0.636895     -0.627229
O      13.41389     13.68328     12.79944         0.864919     -0.289125      0.982370
O       1.70454      2.05353      4.65357         0.219875     -0.242237     -0.071836
O       1.86650     13.71208      4.47989        -0.291694     -0.350304      0.096505
O      13.58701      2.13195      4.55785         0.173511     -0.835605      0.859661
O      13.69082     13.61554      4.52186        -0.385321      0.134089      0.112725
O       1.80748      2.01523      8.77255         0.328302     -0.119319      0.084539
O       1.95855     13.64604      8.72091        -0.100306      0.029078      0.201590
O      13.63835      1.85867      8.78227        -0.102205      0.161803     -0.348852
O      13.63516     13.61716      8.78171         0.131037      0.209263     -2.066297
O       2.01391      5.76831      0.34342        -0.088032      0.135179     -0.102316
O       1.80384      5.70829     12.90189         0.118546      0.385432      1.171647
O      13.62607      5.83673      0.41097        -0.151646      0.213489     -0.086338
O      13.64362      5.84620     12.92248         0.348118     -0.174145      0.423736
O       1.78617      6.05233      4.55047         0.129091     -0.657370     -0.755918
O      13.60580      5.90008      4.53037         0.096444     -0.276448      0.220389
O       2.00292      6.15714      8.88933        -0.411587     -0.539035     -0.893374
O      13.50222      5.83245      8.74323         0.364754     -0.165518      1.199520
O       1.83175      9.80571      0.41007         0.225251     -0.093577     -0.870772
O       1.75682      9.81445     12.91821         0.534926      0.069108      0.246599
O      13.69906      9.70175      0.43711        -0.483609      0.129912     -1.023412
O      13.61189      9.84151     12.87253        -0.038453     -0.617524     -0.352221
O       1.86169      9.78025      4.45695         0.085650     -0.252366      0.786865
O      13.52145      9.71025      4.65874         0.539342     -0.470119      0.463386
O       1.93627      9.62086      8.74651        -0.155482      0.003828     -0.010690
O      13.55641      9.69668      8.83041         0.105224     -0.172556      0.173088
O       5.71725      1.97539      0.34298         0.545515     -0.112381      1.313892
O       5.83697      1.85403     12.86648         0.369611     -0.105013      0.510162
O       5.82344     13.70208      0.35937         0.118843     -0.165305     -0.895667
O       5.81865     13.59147     12.79215         0.306651     -0.026652      0.788864
O       5.86643      1.88677      4.48444         0.158420     -0.055759      0.224205
O       5.88711     13.59136      4.51001         0.066557      0.633703      0.485466
O       5.97490      1.85815      8.79042        -0.584036      0.349594      0.677423
O       5.72505     13.58437      8.72054         0.296385      0.116463     -0.378323
O       5.68467      5.84752      0.47378         0.043640      0.242795     -0.015110
O       5.79149      5.92253     12.94340         0.467929      0.031195     -0.883277
O       5.83930      5.79016      4.59658        -0.535229      0.152076      0.048454
O       5.90492      5.49716      8.87613        -0.213103      0.666768     -1.242456
O       5.80812      9.64504      0.49111        -0.088483      0.006258     -0.771886
O       5.83530      9.70931     12.86465         0.145185      0.063466      0.157479
O       5.74302      9.80827      4.54019         0.157063     -0.221162      0.123754
O       6.06568      9.62844      8.70272        -0.156069      0.278916     -0.969284
O       9.74074      1.90081      0.40985         0.228178      0.241196     -1.028233
O       9.62068      1.86592     12.98666         0.262452      0.108581     -0.716264
O       9.49108     13.59655      0.32199         0.894010      0.385200      0.153504
O       9.77315     13.56523     12.90630        -0.238804      0.181676      0.034123
O       9.80591      1.92777      4.58107        -0.248804     -0.103691      0.767686
O       9.73615     13.68801      4.72371        -0.344684      0.451108     -1.381638
O       9.65246      1.86319      8.77226         0.490901      0.216704      0.092691
O       9.80791     13.56890      8.70037        -0.143057      0.235968     -0.941312
O       9.68315      5.78553      0.48738         0.415869     -0.094616     -0.429020
O       9.69264      5.87239     12.95527         0.193817      0.032810     -0.783281
O       9.75934      5.76439      4.49156        -0.173766      0.220512      0.929987
O       9.71777      5.67104      8.81937         0.386506      0.167202      0.277719
O       9.78328      9.70375      0.45483        -0.152038     -0.280879     -3.169966
O       9.83486      9.69241     12.94157        -0.469846      0.369782      0.411246
O       9.79154      9.70975      4.55722        -0.152862      0.100643     -0.822143
O       9.62157      9.77492      8.62919         0.426207     -0.182667     -0.393059
O       3.87367      1.90631      2.56207        -0.679740     -0.120371     -0.087822
O       3.87192      1.92448     15.09193        -0.152253     -0.174012     -0.670720
O       3.80374     13.73890      2.50491         1.231353     -0.160261      0.003699
O       3.85334     13.68550     14.76053         0.446697     -0.458015      0.892439
O      15.55364      1.85131      2.52629        -0.173421      0.603584      0.010617
O      15.59041      1.88488     15.08723        -0.794247      0.508904     -0.228217
O      15.53233     13.50540      2.39604        -0.453043      0.506110      0.568631
O      15.45588     13.52145     14.89121         0.474810     -0.005632     -0.065250
O       3.78796      1.92902      6.67113         0.335229     -0.286711     -0.102836
O       3.82951     13.66877      6.65754         0.424686      0.139072     -0.390956
O      15.50247      1.83441      6.80090        -0.394817      0.658943     -0.294638
O      15.58724     13.65689      6.68799        -0.559659      0.215910     -0.089969
O       3.91039      1.77929     10.89717        -1.072121      0.613737     -0.255201
O       3.91487     13.52298     10.74684         0.054217     -0.051882      0.337812
O       0.06777      1.84236     10.86448        -0.299089      0.350671      0.164641
O       0.06727     13.65818     10.90039        -1.029628     -0.006981     -0.244652
O       3.76254      5.87410      2.68651         0.227338      0.191772     -0.395969
O       3.88348      5.79527     14.90923        -0.428926      0.458384      0.232081
O      15.57557      5.93027      2.49024         0.592008     -0.543107     -0.074003
O       0.02035      5.92140     15.15171        -0.552839     -1.049967     -0.838228
O       3.84821      5.71862      6.68392         0.092511      0.592564     -0.039665
O      15.57836      5.82622      6.64026        -0.292676      0.427282      0.273195
O       3.93028      5.82189     10.94253        -0.589988      1.014797     -0.001626
O      15.57366      5.92915     10.89155        -0.049576     -0.614916     -0.288233
O       3.87913      9.78315      2.56640        -0.180327     -0.277932     -0.497761
O       3.82667      9.73184     15.01215         0.620422      0.369392     -0.087062
O      15.58318      9.82589      2.48742        -0.016036     -0.096030      0.304273
O      15.53907      9.75426     14.94777        -0.712821      0.280974      0.229498
O       3.92062      9.80530      6.80262        -0.624175     -0.315681     -0.738572
O      15.57446      9.60251      6.75539         0.416093      0.163657     -0.486694
O       3.93412      9.47000     10.68658        -0.358445      0.779848      0.153739
O      15.52768      9.74034     10.80032         0.838638      0.214849      0.302647
O       7.78746      2.15620      2.39079        -0.443382     -0.545533      0.071711
O       7.77354      2.01006     15.07197         0.159361     -0.272181     -0.350557
O       7.77298     13.68176      2.57654         0.394933     -0.265156     -0.302967
O       7.82650     13.65108     14.95523        -1.398825     -0.204672     -0.426390
O       7.74372      1.90368      6.63458         0.994299     -0.500560     -0.056938
O       7.72763     13.62485      6.79966         0.620874      0.604719     -0.852942
O       7.79922      1.97510     10.81461         0.320624     -0.185435      0.497790
O       7.84203     13.55586     10.82315        -0.815674      0.169677     -0.081201
O       7.67992      5.76064      2.41884         1.414147     -0.171314      0.375051
O       7.71933      5.80315     15.08892         0.372160      0.264301     -0.339860
O       7.75533      5.84433      6.50916         0.394392     -0.075274      0.699428
O       7.80731      5.60065     10.92676         0.495049      0.423655      0.168273
O       7.75812      9.71831      2.59883         0.532346     -0.007181     -0.263843
O       7.77162      9.79332     15.04901         0.269868     -0.070016     -0.354668
O       7.77334      9.68567      6.56096        -0.315521      0.532945     -0.078630
O       7.84947      9.77905     10.91672         0.561454     -0.328473     -0.398160
O      11.64156      1.92649      2.53610         1.005333     -0.150092     -0.089937
O      11.69370      1.83955     14.93430         0.207736      0.181972      0.112344
O      11.56460     13.79588      2.38611        -0.016010     -0.292975      0.124810
O      11.63690     13.82884     14.93978         0.490479     -0.815282      0.720430
O      11.61031      2.00950      6.81900         1.447328     -0.114971     -0.311432
O      11.75371     13.45498      6.68519        -0.597808      0.792546     -0.105984
O      11.72576      1.86194     10.92341        -0.548699      0.635563     -0.519139
O      11.72185     13.59388     10.75345        -0.489469      0.409776     -0.084298
O      11.78021      5.89858      2.52648        -1.296740     -0.120455     -0.437333
O      11.65414      5.91046     15.08303         0.354295      0.114663     -0.112633
O      11.64378      5.76161      6.64887         0.144452      0.072883      0.065415
O      11.71524      5.76743     10.96415         0.020999     -0.130958     -0.402392
O      11.68322      9.65802      2.47979        -0.140852     -0.283833     -0.089152
O      11.68608      9.50492     15.02318        -0.491558      0.459749      0.024064
O      11.69291      9.78014      6.63459         0.047613     -0.216687      0.520123
O      11.64928      9.88702     10.85652         0.062804     -1.181276     -0.026587
O       1.93424      3.87905      2.60901        -0.636709      0.128016     -0.396757
O       1.96088      3.81706     14.92019        -0.565649      1.264965      0.597885
O       1.88217     15.58295      2.64779        -0.391653      0.821430     -0.492578
O       1.80286     15.50953     15.04156         0.187158     -0.165167     -0.046987
O      13.58537      3.89920      2.38604         0.195859     -0.606680      0.356116
O      13.61669      3.91837     15.06866         0.221612     -0.428787     -0.311142
O      13.63644     15.54204      2.49607        -0.073863      0.510071      0.018152
O      13.65096     15.60096     14.91733         0.163690      0.036297      0.499103
O       1.88926      3.93246      6.77956        -0.592530      0.069878     -0.217746
O       1.82371     15.58949      6.62479         0.290855      0.538446      0.239790
O      13.72275      3.87914      6.71145        -0.457900      0.086069     -0.104117
O      13.52531     15.57765      6.56789         0.002020      0.564383      0.305946
O       2.09327      3.93618     10.86169        -0.920456     -0.708750     -0.223412
O       2.06156     15.55511     10.86374        -0.485629      0.901287      0.041265
O      13.76856      3.89349     10.89559        -0.298943     -0.082245     -0.176183
O      13.60295      0.02229     10.95864         0.524885     -0.517330     -0.744747
O       1.90832      7.83994      2.37595        -0.038375     -0.574849      0.403856
O       1.87651      7.83706     14.94140         0.236928     -1.121153      0.228522
O      13.77349      7.80842      2.58820        -0.517672      0.062957     -0.381911
O      13.69169      7.77690     14.99990        -0.167233      0.208151      0.017606
O       1.99444      7.86658      6.55259         0.218367     -0.604823      0.111702
O      13.54622      7.71634      6.92012         0.133140      0.102097     -1.006956
O       1.86639      7.81755     11.07280         0.034027     -0.125175     -0.354532
O      13.68807      7.78368     10.82111        -0.500028     -0.159330      0.230111
O       1.92884     11.68610      2.49937         0.086257      0.042799      0.426995
O       1.84235     11.70032     15.06801         0.350772      0.151168     -0.592088
O      13.54121     11.63196      2.69422         0.333952      0.131678     -0.844101
O      13.27141     11.60892     14.86831         0.854029      1.143345      0.262217
O       1.82503     11.72967      6.55449         0.392892     -0.801438     -0.015362
O      13.77131     11.66259      6.68545        -0.295552     -0.253914      0.086696
O       1.95091     11.69258     10.89994         0.089593     -0.974466     -0.453544
O      13.50797     11.70421     10.82564         1.231311      0.229333     -0.110778
O       5.63876      3.90690      2.62046         0.628308     -0.244851     -0.336952
O       5.79049      3.84489     14.88506         0.036480      0.914915      0.101193
O       5.86463      0.02755      2.52624         0.262513      0.013858     -0.155487
O       5.78611     15.58103     14.92033         0.508997     -0.425528     -0.100465
O       5.81969      3.74102      6.61310        -0.139668      0.758337      0.270351
O       5.84399      0.01370      6.79760         0.075715     -0.947643     -1.071402
O       5.69068      3.82736     11.01565         0.556824     -0.525067     -0.111614
O       5.77287     15.48428     10.82896         0.641284      0.325683      0.154157
O       5.83302      7.74702      2.62797        -0.300408      0.667951     -0.230625
O       5.77385      7.85470     14.97392         0.422938     -0.580126      0.217982
O       5.83858      7.76283      6.72733        -0.373557     -0.234873     -0.355950
O       6.05988      7.76568     10.81094        -0.507322     -0.988244      0.104241
O       5.82263     11.73948      2.48892        -0.020044     -0.292183     -0.379748
O       5.83066     11.69358     15.10926        -0.085344      0.295945     -0.880388
O       5.76890     11.76735      6.68751         0.489295     -0.431291     -0.221371
O       5.81367     11.52164     10.84873         0.276506      1.198547     -0.518314
O       9.82871      3.87005      2.61322         0.000918      0.479542     -0.564611
O       9.85022      3.89394     15.03531        -0.527970     -0.066566      0.013508
O       9.58654      0.06201      2.43219         0.166941     -0.984743      0.511092
O       9.70944     15.55270     14.97238        -0.308255      0.921100      0.466838
O       9.69985      3.82284      6.69869        -0.087317      0.892976     -0.161908
O       9.83535     15.60507      6.66848        -0.268998     -0.350154      0.354706
O       9.84155      3.82347     10.96933         0.004148     -0.467932     -0.135718
O       9.74819     15.55239     10.77755        -0.192743      0.398052      0.223897
O       9.68240      7.67884      2.55857         0.135581      1.064149     -0.211113
O       9.60436      7.78356     15.00992         0.142453      0.127876      0.215596
O       9.68891      7.85459      6.52914         0.465993     -1.335158      0.561158
O       9.81079      7.79314     10.79226        -0.286232     -0.272782      0.203493
O       9.75845     11.66358      2.46581        -0.348285      0.565485     -0.229075
O       9.84352     11.66526     15.10988        -0.245917     -0.234711     -0.508765
O       9.72234     11.70921      6.57275        -0.507078      0.005177      0.443757
O       9.76888     11.69542     10.75030        -0.302823     -0.198280      0.160151
