  # total energy = -7882.70111928 
CRSYTAL
PRIMVEC
    15.6080000000000005    0.0000000000000000    0.0000000000000000
     0.0000000000000000   15.6080000000000005    0.0000000000000000
     0.0000000000000000    0.0000000000000000   16.6239999999999988
PRESSURE
-0.573261 -0.655656 -0.398033 0.176962 -0.184509 -0.066567
PRIMCOORD
320 1
Pb       3.79413      3.81998      4.12284         0.538611     -0.277536     -0.125202
Pb       3.81745      3.81099     16.50707         0.367303      0.400070      1.170864
Pb       3.90944     15.48211      4.15597         0.076375      0.320103     -0.219951
Pb       3.99488     15.59943     16.55568        -0.639284     -0.191539      0.813169
Pb       0.03109      3.94520      4.12627        -0.343439     -0.380002     -0.253605
Pb       0.03475      3.88652     16.62204        -0.311743     -0.034896      0.152897
Pb       0.03291     15.52608      4.22127        -0.251046     -0.194875     -0.557215
Pb      15.60698      0.00227     16.56981        -0.322569     -0.290461      0.060765
Pb       4.02583      3.91882      8.19611        -0.593049     -0.025077      0.833225
Pb       3.87774     15.41566      8.21007        -0.178433      1.005608      0.684005
Pb       0.00497      3.92055      8.28814        -0.345593     -0.047441     -0.523619
Pb      15.51662     15.52686      8.33762        -0.020686      0.316458     -0.079662
Pb       3.88768      3.78193     12.41720        -0.173937      0.295231     -0.174350
Pb       3.96720      0.10919     12.50350        -0.326711     -0.255907     -0.209827
Pb      15.58965      4.02741     12.52731         0.026487     -0.536817      0.093761
Pb       0.03876     15.49083     12.37979        -0.170342      0.623576      1.102195
Pb       3.96397      7.74628      4.00335        -0.261108      0.098121      0.730821
Pb       3.90089      7.83303     16.61773         0.354061     -0.235602     -0.057253
Pb      15.44458      7.74047      4.11446         0.297708      0.356152      0.282935
Pb      15.59479      7.73389     16.60096        -0.205623     -0.152608     -0.452376
Pb       3.77607      7.78400      8.30435        -0.196224      0.508128      0.200128
Pb      15.58164      7.72580      8.26500         0.172696      0.883467      0.052112
Pb       3.86204      7.74040     12.36819         0.096003      0.455256      0.071622
Pb      15.58585      7.75103     12.37274        -0.161450      0.322400      0.305288
Pb       3.90767     11.64830      4.16515         0.052992     -0.061773     -0.196551
Pb       3.84532     11.72881      0.06338         0.405443     -0.194508     -0.313925
Pb      15.60401     11.61745      4.12963         0.120226      0.117237     -0.043781
Pb      15.59132     11.57701     16.53992        -0.169556      0.461570     -0.123309
Pb       3.91819     11.68947      8.42903        -0.593909     -0.327470     -0.801768
Pb       0.07503     11.74710      8.28858        -0.358770     -0.618853      0.199117
Pb       3.79055     11.65574     12.47274         0.136672     -0.223587      0.204974
Pb      15.48136     11.83247     12.51584        -0.201371     -0.352748     -0.322122
Pb       7.83870      3.94381      4.08508        -0.163975     -0.538784      0.340757
Pb       7.82771      3.82714      0.00770        -0.392667      0.495548      0.037383
Pb       7.87340      0.02771      4.20942        -0.300468      0.146455     -0.483765
Pb       7.78371     15.55185     16.52479         0.280935      0.407663      0.311815
Pb       7.91065      3.81729      8.21316        -0.645508      0.115091      0.318572
Pb       7.71382      0.01891      8.15946         0.618382      0.258884      0.792589
Pb       7.86360      3.88448     12.54020        -0.476058     -0.141960     -0.577844
Pb       7.76178     15.58075     12.33065        -0.214717      0.225540      0.142980
Pb       7.92489      7.77557      4.16208        -0.494021      0.279545      0.040355
Pb       7.67334      7.58822      0.05659        -0.003367      0.101344     -0.148259
Pb       7.73427      7.72563      8.24451         0.411699      0.374664      0.554617
Pb       7.63791      7.94011     12.49066         0.225010     -0.342485     -0.579236
Pb       7.80994     11.63632      4.11580        -0.312569      0.162413      0.395059
Pb       7.82386     11.73294     16.61516        -0.392012     -0.332373      0.002046
Pb       7.94841     11.64407      8.40708        -0.273432      0.094150     -0.108868
Pb       7.77763     11.83289     12.45366        -0.056907     -0.483757     -0.175416
Pb      11.63782      3.82533      4.00976         0.513914      0.020276      0.502155
Pb      11.63919      3.78334      0.05387        -0.088985      0.765967     -0.532481
Pb      11.78377     15.56773      4.13182         0.129668     -0.156928     -0.276147
Pb      11.75453     15.59549     16.53559         0.051296      0.016086     -0.042073
Pb      11.66722      3.83409      8.26976         0.489666     -0.069530     -0.120753
Pb      11.82191     15.57656      8.37746        -0.213789      0.183331     -0.512547
Pb      11.60848      3.93122     12.32581         0.293896     -0.260533      0.159088
Pb      11.52884      0.08774     12.48167         0.309857      0.204897     -0.137166
Pb      11.67450      8.05351      4.24645         0.100758      0.047047     -0.079313
Pb      11.80163      7.75745     16.59588        -0.601264     -0.033681     -0.349107
Pb      11.71217      7.66251      8.38856        -0.228729      0.430741     -0.247921
Pb      11.76439      7.82600     12.45319        -0.012814     -0.466978     -0.781659
Pb      11.78416     11.84516      4.07538        -0.347923     -0.267312      0.762750
Pb      11.51643     11.63056      0.01588         0.659892      0.059086     -0.335586
Pb      11.58224     11.68442      8.34784         0.125600     -0.160479     -0.171767
Pb      11.68350     11.57687     12.52606        -0.080986      0.509975     -0.559151
Ti       1.87885      1.83262      2.19655         0.536882      0.202357     -0.004188
Ti       1.86923      1.85594     14.76197        -0.353797      0.112826     -0.448383
Ti       1.97785     13.55535      2.24496        -0.253304     -0.082505     -0.589801
Ti       1.94514     13.60158     14.79483        -0.408422      0.399700     -0.549615
Ti      13.64488      1.96302      2.10118         0.248111     -0.476894      1.400846
Ti      13.59039      2.05638     14.71012         0.250624     -0.931186     -0.692280
Ti      13.69165     13.61255      2.16018        -0.044994      0.890953      0.542799
Ti      13.59752     13.68172     14.68157         0.513441      0.218584     -0.034710
Ti       1.92447      1.99401      6.41180        -0.310567     -0.187150     -0.211296
Ti       1.90341     13.75493      6.43993        -0.193243     -1.390247     -0.928388
Ti      13.68746      1.94928      6.27042        -0.889433      0.558595     -0.272215
Ti      13.62314     13.62852      6.43705        -0.213327     -0.090918     -0.939100
Ti       1.84504      1.99914     10.41883         0.537576     -0.315356     -0.641796
Ti       1.91930     13.67927     10.60838        -0.689447      0.102195     -0.922399
Ti      13.70407      1.88514     10.62398        -0.939325      0.774222      0.194204
Ti      13.58769     13.72039     10.57647         0.210769     -1.824440     -0.168450
Ti       1.92165      5.76083      2.20239         0.620582      0.404053     -1.139904
Ti       1.92929      5.83408     14.76703        -0.344904     -0.788243     -0.069094
Ti      13.64238      5.87294      2.11545        -0.140851     -0.757746     -0.710394
Ti      13.57995      5.89744     14.65803         0.051226     -0.488990      0.563640
Ti       1.99341      5.88278      6.35434        -1.984612      0.625123     -0.000303
Ti      13.61900      5.93049      6.33096        -0.208066     -1.052333      0.345692
Ti       1.91173      5.83648     10.49909         1.187343      0.049283     -0.767109
Ti      13.68090      5.72255     10.49330        -1.175548      1.160903      1.291055
Ti       1.96642      9.61885      2.15840        -0.338668      1.168211      0.679307
Ti       1.94265      9.68875     14.66286         0.182347      0.889092     -0.544750
Ti      13.59966      9.79713      2.09761         0.256848      0.160676     -0.128663
Ti      13.61832      9.82091     14.55624        -0.554605     -0.104340      0.665395
Ti       1.88360      9.79722      6.30568        -0.261823     -0.210154      1.408304
Ti      13.57166      9.78847      6.45954         0.457019      0.351215     -0.065777
Ti       1.80406      9.78050     10.62162         0.593866     -0.776709     -0.991103
Ti      13.60240      9.72616     10.49180        -0.072528      0.927295      0.320280
Ti       5.80461      1.90967      2.26870         0.104761     -0.141245      0.719151
Ti       5.74594      1.97773     14.72584         0.958084      0.706791     -0.922600
Ti       5.88756     13.64842      2.17465        -0.452540     -0.065540      0.422446
Ti       5.87613     13.72394     14.67621        -0.490264     -1.209465     -0.039245
Ti       5.80428      1.97150      6.40529        -0.171121     -0.022998     -1.838438
Ti       5.89126     13.65296      6.41426        -0.352213     -0.879460      0.213069
Ti       5.80123      1.93777     10.49302         0.227557     -0.029666     -0.011366
Ti       5.74431     13.58488     10.49898         0.505893      0.700851      1.193268
Ti       5.87903      5.73593      2.34651        -0.045090      0.051216     -1.884864
Ti       5.74263      5.87527     14.56180         0.483270     -0.504622      1.639131
Ti       5.83461      5.89783      6.45207         0.123587     -0.360512     -1.350922
Ti       5.87610      5.78478     10.57927        -0.196229      0.284777     -1.259819
Ti       5.81733      9.68114      2.18753        -0.061249      0.806209     -0.196771
Ti       5.88070      9.79153     14.72342        -0.447387      0.224956      0.630474
Ti       5.72927      9.79184      6.49191         0.430872      0.531339     -1.509817
Ti       5.77878      9.72788     10.47614         0.053806     -0.301642      1.115405
Ti       9.74379      1.92935      2.16145        -0.460697     -0.196000      1.387795
Ti       9.65610      2.00209     14.63227         0.672526     -0.261714      0.266044
Ti       9.69755     13.68768      2.14126         0.403328     -0.252224      1.825397
Ti       9.71559     13.61414     14.65798         0.554307      0.512766     -0.002498
Ti       9.77842      1.92193      6.27208         0.493825     -0.550333     -0.400574
Ti       9.75685     13.69585      6.39599         0.406128     -0.733795     -0.804802
Ti       9.63406      1.94706     10.42977         1.022270      0.098365      0.651443
Ti       9.73487     13.69353     10.55729         0.460772     -0.675690     -0.877852
Ti       9.85324      5.88579      2.24863        -0.743206      0.075616     -0.205419
Ti       9.64232      5.91926     14.54414         0.736856     -0.585814      1.373506
Ti       9.69635      5.80065      6.35265         0.838452      0.618166      0.198151
Ti       9.68799      5.79906     10.43070         0.338984      1.257959      0.067288
Ti       9.69345      9.83594      2.28260         0.169816     -0.521348      0.297338
Ti       9.70460      9.65355     14.69352         0.302533      0.399392      0.941161
Ti       9.63794      9.73459      6.42255         0.972053      0.163142     -0.330130
Ti       9.67331      9.73874     10.62207         0.049383     -0.289425     -1.557742
O       1.95304      1.83860      0.42531        -0.050433      0.259718     -0.231515
O       1.96331      1.81606     12.99102         0.136234      0.404545     -0.331688
O       1.99555     13.45095      0.41561        -0.028319      0.168621      0.429147
O       1.97670     13.63216     12.99834        -0.385551      0.265307     -0.697420
O      13.57052      1.87615      0.35538        -0.064208     -0.056561     -0.780651
O      13.54585      1.95279     12.91111        -0.023785      0.148062      0.143882
O      13.55160     13.64401      0.41742         0.297302     -0.152364     -0.597860
O      13.74194     13.71127     12.89533        -0.407295     -0.317379      0.085667
O       1.87022      1.93335      4.61029        -0.102795      0.224549     -0.096058
O       1.91089     13.75305      4.65255        -0.093563     -0.053753     -0.305401
O      13.53944      2.05729      4.45895         0.529756     -0.425709      0.710056
O      13.65794     13.69468      4.60514        -0.008502     -0.238223      0.751117
O       1.84258      2.11296      8.59070        -0.158249     -0.358013      1.838210
O       1.82775     13.69266      8.79762         0.281107     -0.412492      0.134636
O      13.66056      1.90703      8.87686        -0.011483     -0.063432     -0.580070
O      13.67811     13.81417      8.75821        -0.376484     -0.229763     -0.047326
O       1.96084      5.75448      0.37945        -0.300138      0.392129      1.114138
O       1.93849      5.59370     12.98969        -0.066360      0.800262     -0.093472
O      13.63382      5.88603      0.28194         0.091810      0.600642      1.582401
O      13.60504      5.82880     12.86936         0.119929      0.007102     -0.189728
O       1.66011      6.04428      4.58267         0.904222     -0.646331     -0.197222
O      13.60104      5.79317      4.56030         0.383566      0.223914     -0.336842
O       1.90760      5.87636      8.68231        -0.214665      0.050984      1.015718
O      13.67999      5.69875      8.77233        -0.159902      0.503041     -1.234174
O       1.87606      9.81656      0.36144         0.223765     -0.077843      0.085642
O       1.94950      9.60956     12.88355         0.112297      0.399584      0.309909
O      13.54993      9.85622      0.29076         0.516555     -0.474225      1.347882
O      13.36185      9.90451     12.76566         0.410625     -0.802645      0.327037
O       1.90502      9.72343      4.55632        -0.021928     -0.147352     -0.379347
O      13.71098      9.86151      4.66505        -0.377264     -0.610218     -0.366507
O       1.94549      9.78826      8.83299        -0.180784     -0.196133      0.521452
O      13.60824      9.73915      8.75292        -0.263929     -0.100844     -1.169277
O       5.83178      2.05693      0.50693         0.241925     -0.516172     -1.198555
O       5.83299      1.90949     12.90529        -0.509998     -0.110986      0.269007
O       5.88256     13.83467      0.41913         0.130365     -0.336189     -0.608651
O       5.86174     13.67312     12.89600         0.029354      0.102927     -0.186761
O       5.80222      1.91319      4.56974        -0.334515      0.181882      1.568440
O       5.72830     13.63924      4.67542         0.439627     -0.061503     -0.545214
O       5.78272      1.94946      8.72227         0.037753      0.143499     -0.216851
O       5.59042     13.65324      8.77382         0.304419      0.135304     -0.806486
O       6.01790      5.77587      0.45943        -0.210015      0.165580      1.254526
O       5.79790      5.85257     12.82625        -0.258934     -0.096676     -0.886372
O       5.76453      5.72994      4.64969         0.029729      0.751152      0.072643
O       5.94551      5.76531      8.72969        -0.247680      0.332611      0.284422
O       5.80893      9.60441      0.40692         0.093745      0.053752     -0.288850
O       5.77220      9.78744     12.96701         0.530762     -0.130661     -0.219295
O       5.77696      9.90845      4.64645        -0.025279     -0.464641      0.920759
O       5.83253      9.74864      8.72813        -0.171663      0.137179     -0.479709
O       9.70210      2.00869      0.41038        -0.235014     -0.119690     -0.521906
O       9.68145      2.06570     12.80692         0.005402     -0.252352      1.054608
O       9.63649     13.51071      0.39008         0.309068      0.551981     -0.347375
O       9.61504     13.81156     12.87693         0.316870     -0.368919     -0.085603
O       9.76091      1.96834      4.43059        -0.078857     -0.195072      1.528204
O       9.75383     13.58460      4.57461        -0.159449      0.349158      1.116412
O       9.60677      1.92510      8.67705         0.090455      0.055198     -0.852673
O       9.92281     13.61153      8.74217        -0.398114      0.194953      0.871655
O       9.73974      5.95277      0.49642        -0.166234     -0.075820      0.030572
O       9.84850      5.88018     12.80196        -0.536265     -0.181725     -0.196115
O       9.81673      5.63595      4.58048         0.107790      0.761587      0.090987
O       9.76957      5.83674      8.60366        -0.615067     -0.256595      0.572265
O       9.80190      9.81971      0.54103        -0.330498     -0.003436     -0.819330
O       9.68291      9.84369     12.95428         0.360889     -0.485265     -1.200713
O       9.68725      9.72497      4.57393        -0.017114      0.067454      0.471086
O       9.64093      9.95466      8.78628         0.173403     -0.453993      0.413052
O       3.87754      2.04567      2.56304        -0.372132     -0.272811      0.004967
O       3.85409      1.88948     15.06657         0.496781     -0.071569     -0.462545
O       3.86782     13.66551      2.56082         0.465587     -0.294372     -0.013072
O       3.99144     13.60225     15.00647        -0.435387      0.291325      0.160993
O      15.58133      1.99163      2.41583         0.157160     -0.680084      0.337325
O      15.54748      1.78426     15.00023         0.510740      0.544603      0.073070
O       0.03210     13.56489      2.58974        -0.045080      0.521306     -0.279200
O      15.55998     13.78058     15.07328         0.498816     -0.940280     -0.226708
O       3.78708      1.97626      6.72267         0.929688     -0.010820     -0.232701
O       3.78248     13.62245      6.74578         0.707079      0.196178      0.012005
O      15.51606      1.90083      6.67468         0.344653      0.557682     -0.215690
O      15.53830     13.55656      6.71985         0.357188      0.668062      0.035545
O       3.84999      1.87783     10.81354        -0.720725      0.507851      0.116919
O       3.76743     13.66719     10.92545         0.925121     -0.225267     -0.246976
O      15.59390      2.01907     10.91960         0.000810     -0.190112     -0.212100
O      15.49738     13.62758     10.94894         1.672513     -0.157641     -0.186681
O       3.97510      5.66510      2.52804        -0.927329      0.559811      0.190688
O       3.82825      5.72407     15.10413         0.529444      0.792511     -0.696939
O      15.60668      5.87418      2.45932        -0.331443      0.385031     -0.096467
O      15.59369      5.75328     15.13266         0.495981      0.960824     -0.623024
O       3.79699      5.93351      6.67418         1.323769     -0.050562      0.004399
O      15.51306      5.97375      6.76246         0.210482     -0.881919     -0.498428
O       3.93302      5.76549     10.68529        -1.355843      0.023559      0.656116
O      15.60466      5.88044     10.86941        -0.247426     -0.083436     -0.140834
O       3.90772      9.75784      2.56498        -0.476244      0.079149     -0.172750
O       3.91761      9.76230     14.97896        -0.703695      0.072633      0.216374
O       0.05806      9.69427      2.46775        -0.795737     -0.187646     -0.161540
O      15.45895      9.82943     14.77469         1.839888     -0.350760      0.598770
O       3.82516      9.75430      6.76516         0.513961      0.136321     -0.120335
O      15.51333      9.76587      6.83792         0.500205      0.000445     -0.556236
O       3.89318      9.65875     10.88816        -0.210599      0.720572     -0.048140
O      15.52740      9.58777     10.91391         0.602557      0.401429     -0.077549
O       7.71771      1.83047      2.65846         1.281897      0.130002     -0.673912
O       7.81636      2.02711     14.91334        -0.531673     -0.067264      0.396436
O       7.79115     13.60080      2.48790         0.050175      0.378159      0.169692
O       7.79975     13.62110     14.94492        -0.198823      0.683143      0.432816
O       7.68283      1.88678      6.61757         0.939820      0.338834      0.067703
O       7.77984     13.72670      6.80608        -0.379924     -0.438834     -0.499001
O       7.74714      1.95055     10.78198        -0.544624     -0.102965      0.255136
O       7.83883     13.68570     10.67508        -1.508924      0.203043      0.406311
O       7.84329      5.96047      2.64478        -0.195414     -0.408653     -0.077386
O       7.72615      5.94155     14.82536         0.122918     -0.494025     -0.005199
O       7.71858      5.82910      6.52673         1.133508      0.021049      0.469846
O       7.76244      5.90504     10.87177         0.302381     -0.468048      0.080959
O       7.69072      9.71100      2.61040         1.249360      0.077312     -0.193161
O       7.86851      9.63502     15.01081        -1.444798      0.325391      0.169386
O       7.82570      9.78320      6.81682        -1.082898      0.011036     -0.361726
O       7.75347      9.79272     10.91267        -0.897729     -0.250156      0.153551
O      11.65297      1.90666      2.43781         0.164638      0.414255     -0.246728
O      11.63461      2.03147     15.03177         0.170550      0.014696     -0.200906
O      11.74115     13.56270      2.58215        -0.745609      0.112163     -0.693549
O      11.66670     13.60933     14.96328        -0.470707      0.142134     -0.117816
O      11.63912      1.86742      6.63261        -0.422936      0.111066      0.080720
O      11.70267     13.69333      6.71221        -0.625586      0.061176     -0.007214
O      11.59383      2.00160     10.78847         0.606230     -0.434709      0.204874
O      11.74608     13.62553     10.94147        -1.002085      0.327246     -0.046860
O      11.77224      5.67970      2.42104        -0.493749      0.471322      0.062663
O      11.71319      5.85089     15.02299        -0.251600      0.171247     -0.332586
O      11.70896      5.87097      6.77153        -0.697078     -0.080616     -0.323026
O      11.64285      5.82292     10.77229         0.100002      0.216471     -0.164817
O      11.71033      9.90531      2.50765         0.111462     -0.613173      0.208170
O      11.67950      9.75311     15.06829        -0.589594     -0.129569     -0.461381
O      11.61160      9.62602      6.69690         0.029814      0.318493      0.136535
O      11.56675      9.72549     10.73422         0.522755      0.390623      0.691653
O       1.89801      3.91602      2.51977        -0.081322     -0.280620      0.364742
O       1.90008      3.83774     15.14406        -0.085728     -0.428772     -0.755297
O       2.03795     15.57874      2.45298        -0.637836     -0.059627      0.395822
O       1.98389     15.53344     15.10556         0.153883      0.266298      0.032575
O      13.75306      3.85464      2.28708        -0.461870      0.708499      0.401032
O      13.80021      3.91106     15.07217        -0.810000     -0.428049     -0.551598
O      13.58119     15.52349      2.52510         0.465239      0.754330     -0.122781
O      13.60816     15.60165     14.98040        -0.681162      0.053048      0.278340
O       1.89851      3.98216      6.62343        -0.300028     -0.164817     -0.257247
O       1.81257      0.02850      6.63776         0.216860     -0.173267      0.483307
O      13.48654      3.82435      6.74218         0.760571      0.297391     -0.311882
O      13.58005      0.02721      6.68121         0.361513     -0.138620      0.001340
O       1.75274      3.91857     10.84706         0.868014     -0.433722     -0.215286
O       1.76035      0.00285     10.67277         0.370737      0.332846      0.438038
O      13.55659      3.91091     10.86610         0.641030     -0.469536      0.046273
O      13.73930     15.56378     10.81184        -0.481297      1.317447      0.439551
O       2.17757      7.75577      2.34552        -0.578897     -0.155940      0.115150
O       1.90058      7.84744     15.08680        -0.091748     -1.040594     -0.241911
O      13.57151      7.80115      2.49106        -0.014634      0.335136     -0.220945
O      13.71305      7.82133     14.82248        -0.327056     -0.068032      0.428515
O       1.89428      7.89132      6.72350        -0.024003     -0.766423      0.198055
O      13.58801      7.81345      6.62760         0.003765     -0.348504      0.195272
O       1.99405      7.76379     10.97497        -0.519412     -0.978408     -0.601027
O      13.57945      7.84557     10.77349        -0.196104     -1.427600      0.605253
O       1.98798     11.66318      2.64188        -0.036872      0.028880     -0.421790
O       1.91194     11.70302     14.89477         0.015603     -0.729069      0.466691
O      13.70685     11.68141      2.50653         0.182698     -0.561920     -0.083370
O      13.63686     11.69121     14.88646        -0.138680      0.775108      0.062931
O       1.88828     11.68755      6.69250         0.035853      0.244540      0.053574
O      13.52440     11.71764      6.72168         0.059036      0.030063      0.188512
O       1.89279     11.62862     10.89070        -0.031366      1.100165      0.258649
O      13.74999     11.66200     10.79414        -0.620637      0.527621      0.224643
O       5.93229      3.84675      2.60212         0.192202      0.639076      0.018165
O       5.76531      3.84830     14.86360         0.169053      0.750627      0.252353
O       5.81504     15.55752      2.58676        -0.157610      0.134686      0.001713
O       5.93015      0.10120     15.05195        -0.228984     -1.375848     -0.285880
O       5.83633      3.95754      6.73974        -0.348376     -0.859363     -0.206780
O       5.79549      0.01680      6.69802        -0.449392     -0.374826      0.136987
O       5.80901      3.87485     10.88580         0.136036     -0.544520      0.025930
O       5.75393     15.57121     10.85643         0.270210     -0.037389     -0.140346
O       5.75320      7.81271      2.53318         0.292869     -1.051649      0.152772
O       5.76263      7.73165     14.99352        -0.018377      0.343502     -0.150096
O       5.88070      7.88237      6.79804        -0.468856     -1.022458     -0.497506
O       5.72537      7.79234     10.85189         0.783877     -0.035923      0.039767
O       5.78284     11.70501      2.28386         0.129976      0.186852      0.640937
O       5.95312     11.72279     15.10218        -0.200151     -0.203477     -0.313961
O       5.82172     11.72611      6.76193        -0.157207      0.239611      0.242551
O       5.80697     11.67794     10.80138        -0.303708      0.781710      0.069701
O       9.67136      3.88469      2.46362         0.043160     -0.157075     -0.206948
O       9.66975      4.02093     15.11831         0.180601     -0.641714     -0.806627
O       9.82354     15.53853      2.53181        -0.537095      0.230154     -0.440841
O       9.76665      0.05118     15.02322        -0.223827     -0.145455     -0.351061
O       9.71418      3.81945      6.67565        -0.066999      0.458599     -0.213905
O       9.64757     15.58821      6.61661        -0.004103      0.582041     -0.022556
O       9.65377      3.89730     10.74170        -0.249204      0.358095      0.098311
O       9.71842      0.05887     10.80491         0.144862     -0.812315      0.229061
O       9.80022      7.81175      2.60571         0.302563      0.186838      0.279384
O       9.67355      7.76190     15.00445         0.790429      0.238624     -0.189427
O       9.61581      7.77608      6.60595         0.205102     -0.573834      0.008202
O       9.61194      7.78553     10.67257         0.341121      0.324910      0.516055
O       9.64956     11.71297      2.64150         0.300081     -0.139001     -0.652352
O       9.64554     11.72628     15.00278         0.396867     -0.398452     -0.180504
O       9.68257     11.72428      6.75191         0.260935      0.018236     -0.280344
O       9.57776     11.75490     10.93791         0.862013      0.159589     -0.141640
