  # total energy = -7878.94353640 
CRSYTAL
PRIMVEC
    15.6080000000000005    0.0000000000000000    0.0000000000000000
     0.0000000000000000   15.6080000000000005    0.0000000000000000
     0.0000000000000000    0.0000000000000000   16.6239999999999988
PRESSURE
-0.61648 -0.65023 0.011946 -0.014717 -0.330033 -0.060527
PRIMCOORD
320 1
Pb       3.74787      3.83859      4.12481         0.457861     -0.521038      0.313662
Pb       3.74184      3.74202     16.60309         0.449698      0.098521     -0.199187
Pb       3.93635     15.42758      4.31925        -0.045978      0.890861     -0.795927
Pb       4.00036     15.60160      0.08015        -0.084245     -0.330775      0.001608
Pb      15.57725      3.88273      4.13958         0.220425     -0.236050      0.874610
Pb      15.57959      3.96965     16.60415         0.100719      0.076451     -0.135528
Pb       0.10442     15.59757      4.30590        -0.139231      0.185969     -0.722173
Pb      15.59940     15.55192      0.03001         0.574358     -0.231496      0.166025
Pb       4.04280      4.05945      8.31860        -0.123337     -0.755638     -0.542312
Pb       3.88236      0.03476      8.48897         0.133998     -0.010839     -0.686792
Pb       0.11891      3.95156      8.24827        -0.045035     -0.600990     -0.669609
Pb       0.00732      0.07912      8.35702        -0.075503     -0.227648     -0.368719
Pb       3.96408      3.90303     12.30970        -0.533812     -0.142919      0.626050
Pb       3.92695      0.12110     12.33568         0.348310      0.057610      0.359045
Pb      15.49121      3.78486     12.31835         0.718626      0.562365      0.476400
Pb      15.43468     15.56506     12.32708         0.754542     -0.359927      0.094581
Pb       3.93396      7.66335      4.24972         0.332775      0.309447     -0.673573
Pb       3.85264      7.83959      0.04874         0.107339     -0.159536     -0.885406
Pb      15.50901      7.74255      4.12682         0.257269     -0.156139     -0.273876
Pb       0.02195      7.78926      0.02113        -0.274421     -0.408979     -0.144682
Pb       3.94921      7.86722      8.25866        -0.057509     -0.794399      0.337573
Pb       0.20438      7.87705      8.01042        -1.214706     -0.158238      1.331333
Pb       3.75401      7.81027     12.49276         0.272017      0.116672     -0.056600
Pb       0.04396      7.73728     12.39731        -0.192996      0.159127     -0.107095
Pb       4.00805     11.59630      4.29131        -0.392074      0.283032     -0.127549
Pb       3.91769     11.63340     16.59726        -0.407217      0.769716      0.442118
Pb       0.06729     11.69072      4.25672         0.207359      0.418909     -0.877869
Pb       0.03331     11.61661     16.60076        -0.031249      0.560340      0.263715
Pb       3.89026     11.45978      8.32394        -0.045780      1.161413     -0.041482
Pb      15.55435     11.72878      8.40118         0.059339     -0.192757     -0.091129
Pb       3.78299     11.73938     12.62067        -0.080866      0.004401     -0.930800
Pb      15.36730     11.72747     12.44720         0.507495     -0.287525     -0.281008
Pb       7.85715      4.07744      4.13046        -0.553572     -0.511963     -0.599214
Pb       7.72097      3.70817      0.12041        -0.371390      0.251583     -0.180235
Pb       7.86192      0.05070      4.16101        -0.694921     -0.019862     -0.247800
Pb       7.81188     15.40317     16.55920        -0.447544      0.341514      0.386713
Pb       7.86388      3.97927      8.06763        -0.419790     -0.619098      1.349323
Pb       7.71004     15.57599      8.38620         0.221897      0.301185     -0.218374
Pb       7.78015      4.13432     12.49301         0.185975     -0.343128     -0.244007
Pb       7.80032      0.09143     12.43418        -0.194407     -0.304834     -0.280464
Pb       7.73007      7.76048      4.11316        -0.123896      0.377962     -0.775713
Pb       7.90541      7.66570      0.03784        -0.759303      0.009147     -0.446238
Pb       7.69441      7.78274      8.40733         0.259068     -0.410806      0.050515
Pb       7.68870      7.97037     12.58796         0.309103     -0.645584     -0.304876
Pb       7.74940     11.65288      4.14220         0.047543      0.132409      0.072543
Pb       7.91246     11.50896      0.04983        -0.696990      0.697083     -0.035688
Pb       7.72170     11.57668      8.45697         0.546929      0.297228     -0.822205
Pb       7.70049     11.76565     12.55417         0.501559     -0.112207     -0.669825
Pb      11.55961      4.00574      3.96378         0.154943     -0.468493      0.465133
Pb      11.63053      3.67147     16.41527         0.227058      0.182880      0.431550
Pb      11.96982      0.18051      4.18936        -0.361244     -0.175651     -0.341251
Pb      11.78212     15.57834      0.04676        -0.477386      0.193944     -0.608870
Pb      11.71138      3.62946      8.06382        -0.486059      1.085702      1.201141
Pb      11.78106     15.39338      8.27006        -0.623484      0.696675      0.170421
Pb      11.54087      3.95541     12.37171        -0.244070     -0.250974     -0.015878
Pb      11.84416      0.03854     12.57006        -0.951237      0.163875     -0.132262
Pb      11.66236      8.00370      4.13729        -0.165456     -0.560449     -0.022216
Pb      11.69784      7.73749     16.55515         0.244674     -0.118599     -0.062573
Pb      11.71587      7.75151      8.21213         0.311291      0.080752      0.354028
Pb      11.91325      7.51656     12.39422        -0.480152      0.471530      0.294044
Pb      11.52630     12.07290      4.10700         0.502692     -0.580204      0.671878
Pb      11.69893     11.75752      0.04156         0.087110     -0.237326     -0.387659
Pb      11.55237     11.49094      8.10170         0.005222      0.296345      0.536409
Pb      11.63999     11.53503     12.51313        -0.246804      0.376560     -0.358301
Ti       1.91806      1.99649      2.15938         0.384016     -0.944994      1.088273
Ti       1.85952      1.99883     14.49841         1.633517     -0.192787     -0.181058
Ti       1.90926     13.71730      2.23207        -0.458435     -0.284336     -1.511473
Ti       1.86661     13.79492     14.61958         0.226885     -0.085359      1.751662
Ti      13.67230      2.02983      2.20663         0.106747     -0.566501      0.315215
Ti      13.77764      1.82759     14.61943        -1.556888      0.522232     -0.260876
Ti      13.63478     13.66956      2.21499         0.556029      0.647092      0.932329
Ti      13.62518     13.53568     14.69155         0.024175      0.212257      0.499922
Ti       2.10368      1.81316      6.39601        -0.165772      1.796816     -0.223932
Ti       1.91242     13.58802      6.47168         0.646162      0.244456     -0.537776
Ti      13.68058      1.87306      6.43649         1.179050     -0.025126     -0.848692
Ti      13.63272     13.54431      6.38874        -0.137128      0.851544      0.013321
Ti       1.89690      1.90187     10.46978         0.621525      0.907867     -0.539207
Ti       1.90603     13.59501     10.48518         0.066867     -0.173357     -0.153954
Ti      13.59797      1.95568     10.46343        -0.596882     -0.080254     -0.100032
Ti      13.48116     13.62931     10.39254         1.279363     -0.792011      0.878851
Ti       1.88129      5.88889      2.21931         0.098302     -0.317073      0.703518
Ti       1.85343      5.90617     14.63695         0.458366     -0.639650      0.485238
Ti      13.57323      5.84067      2.28507         0.181109     -0.883665     -1.309645
Ti      13.58936      5.67167     14.67301         1.031886      1.176768      0.037407
Ti       1.97232      5.74219      6.37958         0.563072     -1.031425     -0.211022
Ti      13.55921      5.82237      6.33011         0.540462     -0.104288      0.571290
Ti       1.89785      5.88481     10.41144         1.223636     -0.492066      0.924145
Ti      13.74128      5.80016     10.38274        -1.344124      0.936252      0.302709
Ti       1.90007      9.72827      2.27278         0.667580      1.022766      0.068926
Ti       1.86803      9.85078     14.68927         0.219105     -1.843175     -0.745878
Ti      13.62633      9.82957      2.19588         0.294513      0.259186     -0.667242
Ti      13.63972      9.62980     14.72296        -0.713624     -0.001952      0.666210
Ti       2.04226      9.72304      6.29165        -0.567412      0.957545      0.638291
Ti      13.72147      9.74119      6.21517        -0.689018      0.112233      0.966862
Ti       1.97051      9.78087     10.41744        -0.257498      0.071855      0.438529
Ti      13.62854      9.77638     10.45120         0.647069     -0.596689      0.374966
Ti       5.76499      1.96193      2.24415        -0.162458     -0.310136      0.794068
Ti       5.84828      1.88562     14.71367        -0.827890      0.003061     -0.025901
Ti       5.73745     13.67066      2.29938         0.482057      0.655982     -1.085683
Ti       5.72616     13.61682     14.62616         0.315565      0.882382      1.398952
Ti       5.93260      1.85931      6.30440        -1.854300      1.383034     -0.897433
Ti       5.81905     13.65955      6.40096         0.370250     -0.355238     -0.210773
Ti       5.91619      2.01849     10.39074         0.238722     -0.360542      0.851071
Ti       5.78072     13.62808     10.45299         0.562142      0.196166      1.010080
Ti       5.62796      5.79998      2.09997         2.073149     -0.431351     -0.686675
Ti       5.73937      5.72495     14.79605         0.003764      0.590449      0.382394
Ti       5.91252      5.82301      6.24953        -1.491508     -0.287981      0.550843
Ti       5.77260      5.94553     10.53217         0.898207     -0.024624     -0.059802
Ti       5.78969      9.80010      2.15166         0.237811     -0.708553      1.911749
Ti       5.80159      9.75708     14.64224         0.224067     -1.039133      1.105794
Ti       5.91317      9.68359      6.41653         0.807558      0.342409     -1.332472
Ti       5.84343      9.75741     10.57762        -0.072051      0.059754      1.532082
Ti       9.63531      1.94729      2.23416         0.025815     -0.329296     -0.745550
Ti       9.68058      1.83133     14.63365         0.642817      0.199001     -0.400660
Ti       9.62739     13.72680      2.21113        -0.016849     -0.346984      1.173686
Ti       9.70337     13.55058     14.68734        -0.143369      0.656259     -0.527935
Ti       9.73002      1.94943      6.31600        -0.639742     -0.451892     -0.463527
Ti       9.67467     13.74865      6.45638        -1.026576     -0.828352     -0.462598
Ti       9.70291      1.88194     10.47360        -0.238544      0.458123      0.791256
Ti       9.70625     13.58979     10.48551        -0.492111     -0.227233      0.926487
Ti       9.67052      5.85472      2.11170        -0.619166      0.422776     -0.521048
Ti       9.68622      5.81108     14.72940        -0.310224      0.097072     -0.133848
Ti       9.71456      5.97291      6.36411        -0.232127     -0.781217     -0.715487
Ti       9.66608      5.86426     10.42654         0.110352     -0.182840      0.772299
Ti       9.77674      9.76969      2.12729        -1.312850     -0.068392      0.691480
Ti       9.72131      9.74615     14.60169         0.075443     -0.710184      1.633975
Ti       9.71032      9.66584      6.32287        -0.511347      1.720126     -0.414986
Ti       9.88405      9.63170     10.51442        -1.654541      0.733459      0.531330
O       1.84033      1.92381      0.39417        -0.021843      0.097801     -0.410765
O       1.88132      1.90360     12.70037        -0.140131      0.350133     -0.231353
O       1.76126     13.92367      0.36256         0.043170     -0.317581      0.994943
O       1.99625     13.54237     12.90504        -0.033514     -0.110797     -1.472359
O      13.72592      2.14187      0.43149        -0.118535     -0.465732     -0.427495
O      13.77552      1.71684     12.75965        -0.221266      0.292982      0.117891
O      13.61581     13.76310      0.47520         0.325237     -0.157491     -1.450424
O      13.55536     13.62592     12.91255         0.214176     -0.040314     -0.608539
O       1.93479      2.10122      4.62555         0.195345     -0.678891     -0.245897
O       1.92837     13.65061      4.63656         0.026633     -0.351808      0.464262
O      13.75036      1.75941      4.63091        -0.600957      0.238203      0.381839
O      13.59135     13.80067      4.62607        -0.314903     -0.236347     -0.565118
O       2.12146      1.87617      8.62904        -0.706499     -0.126379      1.054095
O       1.92904     13.62870      8.67919        -0.398951     -0.014450      0.172575
O      13.50882      1.87777      8.67941         0.026856      0.460840      0.322989
O      13.69819     13.52067      8.65418        -0.445964      0.078128     -0.988014
O       1.77732      5.92908      0.48598         0.411095     -0.087546     -0.998139
O       1.88840      5.80066     12.88769        -0.597256      0.797875     -1.282631
O      13.60830      5.65406      0.48118         0.253831      0.186405      0.822947
O      13.82437      5.83089     12.89163        -0.524282      0.082207      0.019034
O       1.85665      5.60024      4.62711         0.549319      1.257737     -0.432119
O      13.51803      5.79062      4.56737         0.151587      0.142433      0.331415
O       2.21160      5.88937      8.67205        -0.846443     -0.205289     -0.351007
O      13.44136      5.83987      8.65059         0.557233      0.018534     -0.377114
O       1.94927      9.62819      0.49332        -0.126647      0.162158     -0.299458
O       1.77997      9.71038     12.87610         0.459861      0.337871      0.407474
O      13.67167      9.68228      0.38703        -0.272928      0.237791      1.451444
O      13.56390      9.95548     12.94921         0.315923     -0.954067     -0.010838
O       2.00399      9.88284      4.53689        -0.373096     -0.250315     -0.149074
O      13.57789      9.89562      4.48689         0.097740     -0.835952     -0.704252
O       1.99700      9.80859      8.60627        -0.164228      0.007877      0.403410
O      13.57123      9.80033      8.70435         0.172096     -0.234264     -0.791800
O       5.79561      2.07318      0.45981        -0.210729     -0.812832     -1.149986
O       5.92558      1.77782     12.92880        -0.216241      0.385784      0.248631
O       5.66409     13.72338      0.47853         0.227022     -0.503814      0.834959
O       5.75115     13.64641     12.86214        -0.284390     -0.064711     -0.064705
O       5.74543      1.91888      4.47555         0.526309      0.228557      1.415509
O       5.66408     13.79480      4.56884         0.168199     -0.504584      0.789356
O       5.80336      1.88761      8.64550         0.298010      0.101255     -0.317448
O       5.95128     13.56947      8.66779        -0.082395      0.219640      0.371430
O       5.74492      5.80580      0.27249        -0.490196      0.489563      0.841586
O       6.03089      5.72715     13.01974        -0.387055      0.198820     -0.612683
O       5.80136      5.80286      4.48377         0.249488      0.310193     -0.600845
O       5.72436      6.06525      8.74482        -0.080264     -0.378829      0.339635
O       5.63978      9.88251      0.41819         0.174835     -0.077751     -0.794599
O       5.73409      9.75835     12.87129         0.107273      0.255260      0.008569
O       6.05006      9.74342      4.60119        -0.674959     -0.495265      0.993909
O       5.84578      9.68224      8.79476         0.085357     -0.040458     -0.926229
O       9.76712      1.91890      0.43858        -0.144369      0.154372      0.211073
O       9.79557      1.83708     12.81661        -0.398442     -0.266394      1.018332
O       9.61715     13.46902      0.50648         0.287501      0.102532     -1.491764
O       9.75039     13.58917     12.91360         0.147886      0.022338     -0.002714
O       9.57541      1.88301      4.49777         0.431530      0.234970      0.547416
O       9.65389     13.75158      4.67789         0.689837     -0.141775     -0.843075
O       9.67162      2.02569      8.72116         0.368281     -0.105890     -0.563089
O       9.63607     13.57991      8.71016        -0.165948      0.102829      0.199071
O       9.77206      5.96948      0.31546        -0.019761     -0.470708      0.526404
O       9.66404      5.84754     12.94391         0.025280     -0.400098     -0.224799
O       9.54767      5.84629      4.52402         0.367421      0.307664      0.498574
O       9.75912      5.84300      8.66253        -0.109072      0.272730     -0.381428
O       9.58599      9.77230      0.33314         0.587842      0.130548      0.800361
O       9.74605      9.91714     12.87789         0.215199     -0.660677     -0.777081
O       9.54728      9.60359      4.50779         0.429101     -0.075415      0.877631
O       9.85176      9.78298      8.72781        -0.269505     -0.558982     -0.236169
O       3.89584      1.87393      2.51301        -1.971044      0.067462     -0.162923
O       3.84178      1.87077     14.80042        -0.410836     -0.218619      0.573002
O       3.80639     13.76404      2.50164        -0.222275      0.022702      0.313259
O       3.74247     13.76267     15.13634         0.574548     -0.183056     -0.943687
O      15.55348      2.06580      2.63778         0.611641      0.218484     -0.761631
O      15.58960      2.17536     14.80048        -0.068067     -0.290360      0.389363
O      15.58856     13.67964      2.62784        -0.721352     -0.244453      0.073125
O      15.53133     13.54828     14.90791        -0.029483     -0.091564      0.243861
O       3.95916      2.06992      6.65600        -0.323130     -0.640240     -0.036873
O       3.94155     13.65726      6.86722        -0.315586     -0.241390     -0.648800
O       0.01396      1.84485      6.70574        -0.347955     -0.055596      0.508036
O      15.48138     13.78238      6.64828         1.462578     -0.754240      0.154814
O       4.00261      1.94417     10.78696        -1.487196     -0.627123      0.062636
O       3.87097     13.74758     10.78557         0.335358      0.089511     -0.246318
O      15.54695      1.97537     10.62179         0.132205      0.024937      0.074265
O       0.02610     13.39345     10.75891        -0.626231      0.514872      0.087278
O       3.83485      6.06678      2.48913        -0.832879      0.169855      0.297986
O       3.82458      5.91513     14.79456         0.691710      0.383239      0.663207
O       0.06194      5.77043      2.70134        -1.704783     -0.051369     -0.435635
O      15.55856      5.81171     15.06089        -0.316729     -0.449504     -0.045584
O       3.89701      5.68167      6.56112        -0.118588      0.893107     -0.059268
O      15.60522      5.82601      6.76775        -0.353636      0.219561     -0.268097
O       3.91875      5.83682     10.97912        -0.850176      0.438429     -0.341000
O       0.05271      5.85012     10.67766        -0.331366     -0.024407     -0.208619
O       3.84734      9.87574      2.64941        -0.202975     -1.009385     -0.329915
O       3.82949      9.58412     14.96137        -0.200720      0.691064     -0.089821
O      15.51355      9.82777      2.64583        -0.056663     -0.003223     -0.253403
O      15.52018      9.71907     15.07473         0.641169      0.312968     -0.305446
O       3.94361      9.68607      6.68070         0.089222      0.507029     -0.397304
O       0.04282      9.82624      6.59307        -0.442861     -0.462254     -0.271765
O       3.86244      9.67001     10.79131        -0.162816      0.333425      0.059317
O      15.56077      9.82634     10.70136         0.228539      0.158704      0.178482
O       7.65667      1.97259      2.49974         1.771273      0.464019      0.070033
O       7.73242      1.90184     15.03630         0.890524     -0.041452     -0.202697
O       7.71318     13.49982      2.52078         0.382452      0.376623      0.129674
O       7.77031     13.60987     14.98338        -0.350911     -0.282336     -0.219918
O       7.72642      1.93381      6.66109         1.434494      0.420528      0.029827
O       7.72597     13.60729      6.54476         0.003567      0.520370      0.767246
O       7.81172      1.93394     10.78269        -0.457868      0.323994      0.051888
O       7.78846     13.56605     10.92514         0.039334     -0.169105     -0.501750
O       7.65479      5.70597      2.29536         0.778772      0.467046      0.512230
O       7.84410      5.65414     15.13879        -0.248287      0.125661     -0.278558
O       7.78207      5.91513      6.68245         0.087509      0.101178     -0.104946
O       7.70348      5.91792     10.71833         0.330127     -0.376139      0.318826
O       7.67528     10.00840      2.40799         0.640373     -0.454791     -0.368549
O       7.73404      9.92148     14.97485        -0.258542     -0.412676     -0.594821
O       7.80486      9.48013      6.87050        -0.768005      1.270329     -0.559811
O       7.79198      9.74575     10.99913        -0.690475      0.182828     -0.797948
O      11.66342      2.04409      2.49334        -0.078461     -0.374227      0.329067
O      11.77494      1.69633     14.86746        -0.406418      0.570442      0.343685
O      11.64952     13.71368      2.39505        -0.107675      0.146485      0.703947
O      11.66421     13.63986     15.02372         0.327915     -0.056708      0.465989
O      11.63258      1.84705      6.54924         0.130449      0.426215      0.022669
O      11.55967     13.52612      6.74569         1.053419      0.659958     -0.206612
O      11.66874      1.93667     10.86596         0.808877      0.059935     -0.281928
O      11.70875     13.69303     10.72871        -1.292233      0.213480     -0.031253
O      11.59172      5.83749      2.46577         0.098597      0.172489      0.276373
O      11.70903      5.79214     15.00585        -0.672413      0.370674     -0.311071
O      11.57923      5.95779      6.63275         0.913901     -0.454628     -0.466208
O      11.73545      5.82009     10.88117        -0.626159      0.137081     -0.292774
O      11.63538      9.60189      2.49257         0.580789      0.151033     -0.469611
O      11.64362      9.60603     15.11383         0.222700      0.610601     -0.624251
O      11.70834      9.65014      6.54021        -0.395625     -0.033558     -0.049234
O      11.70837      9.62106     10.80596         0.376690     -0.270313      0.382187
O       2.14559      3.98001      2.40773        -0.712893     -0.932391     -0.052353
O       2.00725      3.94456     14.90734        -0.454465     -0.740232      0.261792
O       1.80203      0.09552      2.52422         0.004348     -0.278650      0.264309
O       1.63405      0.04984     14.66742         0.088301      0.100372      0.593672
O      13.58395      3.90687      2.75871         0.020410      0.004263     -0.593778
O      13.52264      3.83317     14.86761         0.235391     -0.796443     -0.023180
O      13.70123      0.04256      2.48599        -0.500663      0.403621     -0.001851
O      13.69063     15.59266     14.96351         0.442605     -0.454846      0.066350
O       1.90986      3.83842      6.59321        -0.374122      0.675479      1.358162
O       2.03640     15.52688      6.59881        -0.080537      0.239907      0.403896
O      13.65522      3.82092      6.72614        -0.176638      0.685453     -0.420582
O      13.53975     15.60341      6.77285        -0.083639     -0.722604      0.000103
O       1.90201      3.90346     10.72330         0.218084     -0.178796     -0.153088
O       1.75430      0.00438     10.68333         0.564793     -0.319847      0.236714
O      13.67584      3.97931     10.83399        -0.203604     -1.875568     -0.375082
O      13.73391     15.53958     10.56267        -0.135448      0.453547      0.677543
O       1.70794      7.82847      2.57460         0.713065      0.302790      0.418635
O       1.76508      7.79694     15.04045         0.414497      0.215717     -0.288409
O      13.73309      7.67128      2.56699        -0.426782      1.503135      0.133674
O      13.66600      7.69197     15.10615        -0.303256      0.780204     -0.683394
O       2.03316      7.84523      6.67357        -0.071533     -0.659081     -0.824872
O      13.65217      7.75909      6.51818         0.186336      0.422403      0.143594
O       1.92120      7.85629     10.61524        -0.179318     -0.861590      0.787422
O      13.70932      7.69856     10.86644        -0.027676      0.922754     -0.153369
O       1.86101     11.76859      2.26318        -0.137250     -0.263075      0.834175
O       1.93497     11.66222     15.02839        -0.056989      0.300751     -0.066940
O      13.48552     11.75342      2.33359         0.184382     -0.980417      0.413664
O      13.61231     11.64036     15.09332        -0.349030      0.478213     -0.044867
O       2.00861     11.66519      6.69906        -0.231599      0.483517     -0.114783
O      13.63618     11.67579      6.45102         0.143470     -0.222506      0.709367
O       2.11597     11.68979     10.74061        -0.188928     -0.073778      0.097440
O      13.50494     11.66998     10.73094         0.228292      0.074633      0.464079
O       5.57726      3.92461      2.31510         0.168648      0.703688      0.696650
O       5.68287      3.83181     15.15195         0.497418      0.019696     -0.969215
O       5.84921      0.05375      2.54488        -0.134601     -1.571816     -0.085639
O       5.85640     15.51434     15.14229        -0.274744      0.691939     -0.579976
O       5.87367      3.99601      6.72335         0.450839     -0.672388     -0.147792
O       5.89230      0.05818      6.63588        -0.419002     -1.682059      0.271943
O       5.74546      3.89378     10.74092         0.609878      0.732598      0.013812
O       5.95234      0.01102     10.76182        -0.405807     -0.788945     -0.225775
O       5.84199      7.80345      2.47464        -0.156353      0.876096      0.039999
O       5.96901      7.85761     15.04300        -0.343003     -0.097444     -0.329493
O       5.71757      7.69714      6.61413         0.245106      0.941671     -0.007398
O       5.75663      7.86293     10.99708         0.262089     -0.845815     -0.208724
O       5.66055     11.74722      2.76902         0.496360     -0.017170     -1.022902
O       5.66079     11.77364     14.99590        -0.115287     -0.827543     -0.401618
O       5.96229     11.59393      6.57735        -0.507233      0.352805      0.518248
O       5.78889     11.68761     10.81857        -0.127836      0.280712     -0.053434
O       9.56221      3.91061      2.41510         0.731494      0.194067      0.363190
O       9.82284      3.71442     14.84633        -0.021464      0.744801      0.323305
O       9.58753     15.60338      2.42681         0.094558      0.013202      0.087605
O       9.72367     15.53673     15.13220        -0.026326     -0.226324     -0.405571
O       9.64778      3.88670      6.60309         0.457059      0.265903     -0.372880
O       9.63149      0.08716      6.78716         0.204153     -1.137394     -0.175004
O       9.63491      3.97857     10.86506         0.577717     -0.259002     -0.041981
O       9.58302      0.00517     10.80426         0.733147     -1.004741     -0.505315
O       9.51764      7.81676      2.38049         0.213514     -0.013821      0.251872
O       9.59629      7.79985     14.85668         0.088257     -0.214426      0.433675
O       9.59871      7.84007      6.69896         1.060116     -1.380387     -0.027823
O       9.59791      7.75962     10.86663         0.735375      0.094479     -0.247085
O       9.85075     11.64869      2.67052        -0.625346      0.177493     -0.904995
O       9.71967     11.63148     14.95136         0.553341      0.900650      0.475463
O       9.59565     11.64387      6.65042         0.278887     -0.671331      0.008752
O       9.80339     11.58037     10.82624         0.037340      1.369596     -0.250324
