  # total energy = -7875.18361346 
CRSYTAL
PRIMVEC
    15.6080000000000005    0.0000000000000000    0.0000000000000000
     0.0000000000000000   15.6080000000000005    0.0000000000000000
     0.0000000000000000    0.0000000000000000   16.6239999999999988
PRESSURE
-0.019402 -0.460647 -0.762144 -0.247655 0.084449 -0.067101
PRIMCOORD
320 1
Pb       4.02866      3.95517      4.11849        -0.684974     -0.827812      0.489883
Pb       4.09753      4.06642      0.16733        -0.028105      0.019408     -0.407721
Pb       3.88105      0.03594      3.97639         0.323910     -0.092410      0.629416
Pb       3.75759     15.57267     16.59915         0.667606      0.090611      0.051142
Pb       0.09960      3.82434      4.20276        -0.259233      0.466786     -0.655429
Pb      15.51310      3.79783     16.59386        -0.397273     -0.089626      0.397128
Pb      15.56819     15.52134      4.01434        -0.508985      0.126921     -0.296944
Pb      15.51498     15.56658     16.55658        -0.189715      0.196080      0.103020
Pb       3.62731      3.73223      8.34861         0.359034      0.109006     -0.643591
Pb       3.88301      0.07344      8.24730        -0.318660     -0.221849     -0.295877
Pb      15.50954      3.78276      8.30094         0.164748      0.253221     -0.534329
Pb       0.10992     15.57999      8.21808        -0.247518     -0.075703      0.245432
Pb       3.86748      3.92574     12.43508        -0.007986     -0.361895      0.163354
Pb       3.83335     15.41523     12.35443         0.258253      0.575227     -0.012706
Pb       0.00498      3.84573     12.46577         0.831423      0.173605      0.551932
Pb      15.60316      0.30319     12.67303        -0.041234     -0.457181     -0.413546
Pb       3.78804      7.88799      4.27003         0.386430     -0.155903     -0.448689
Pb       3.82129      7.74351     16.58383         0.328411     -0.124031      0.106696
Pb       0.20914      7.90885      4.27065        -0.781854     -0.434088     -0.652745
Pb       0.04217      7.73889     16.60938        -0.733046      0.076282      0.091120
Pb       3.98907      7.65220      8.20205         0.223499      0.485387     -0.579154
Pb      15.32564      7.73131      8.64067         0.545915     -0.308624     -0.846914
Pb       3.92459      7.87657     12.41209         0.446967     -0.256177      0.418223
Pb      15.55990      7.99104     12.62021         0.006176     -0.849580     -0.404370
Pb       3.81500     11.67940      4.06156         0.124954      0.348123     -0.455642
Pb       3.89394     11.65682     16.46719        -0.130331     -0.012773      0.881920
Pb      15.56513     11.67729      4.04134         0.215254     -0.349079     -0.241037
Pb      15.54043     11.85229     16.56635         0.097337     -0.973804      0.186890
Pb       3.84286     11.66226      8.05224        -0.732683      0.881901      0.853512
Pb      15.58691     11.60327      8.30053         0.445633      0.375605      0.220802
Pb       4.03123     11.65394     12.27802        -0.089406      0.051166      0.331444
Pb       0.23567     11.56180     12.33068        -0.764226      0.444174      0.093705
Pb       7.83419      3.67762      4.20476         0.078750      0.131105     -0.575264
Pb       7.82282      4.00100      0.08827         0.380482      0.082809     -0.487012
Pb       7.73704     15.42053      4.00298        -0.162994      0.592173      0.631233
Pb       7.88863      0.18785      0.12119        -0.020806      0.394015     -0.291980
Pb       7.55824      3.95400      8.37165         0.656169     -0.264055      0.679233
Pb       7.90560     15.52865      8.30664        -0.927526      0.662262      0.335605
Pb       7.66457      3.72690     12.42887         0.408669      0.174681     -0.270690
Pb       7.63697     15.55214     12.56407         0.122886      0.468032     -0.604287
Pb       7.70880      7.85485      4.16309         0.372483     -0.135555      0.208249
Pb       7.74814      7.99689     16.57133        -0.020772     -1.159930      0.593561
Pb       7.83650      7.73817      8.23766        -0.267109     -0.040414     -0.139192
Pb       7.80147      7.56407     12.39260        -0.286359      0.726909      0.183812
Pb       7.99922     11.71685      4.31440        -0.805620      0.059942      0.003522
Pb       7.60228     11.71590     16.60232         0.730897      0.296642      0.313879
Pb       7.62630     11.75318      8.11004         1.000395     -0.111046      0.578561
Pb       7.68412     11.46606     12.39043         0.600196      0.479629      0.212906
Pb      11.85702      3.87109      4.41775        -0.561834     -0.121482     -0.799567
Pb      11.82157      4.09106      0.18366        -0.438240     -0.033958     -0.076794
Pb      11.53903     15.44443      4.19063        -0.006853      0.250966     -0.758076
Pb      11.56818     15.49066      0.06450        -0.344686      0.702155      0.312375
Pb      11.74999      4.16033      8.45798         0.199217     -0.736280     -0.102302
Pb      11.62314      0.16086      8.27821         0.662760      0.075824      0.611739
Pb      11.83606      3.81326     12.66531        -0.353266      0.159080     -0.706683
Pb      11.79614     15.55340     12.44015        -0.441537      0.708645     -0.677246
Pb      11.75838      7.52954      4.08721        -0.161826      0.366767      0.286185
Pb      11.42919      7.78968      0.02992         0.454295      0.129272     -0.018296
Pb      11.54851      7.93510      8.28859         0.062852     -0.672836     -0.339383
Pb      11.44325      7.95974     12.70601         0.466954      0.007358     -0.199052
Pb      11.70341     11.25817      4.28258         0.079348      0.667261     -0.732244
Pb      11.79244     11.78869     16.50813        -0.947091     -0.998765      0.147221
Pb      12.02530     11.98666      8.50590        -0.475893     -0.077642     -0.291778
Pb      11.58037     11.92018     12.39113        -0.256911     -0.625541      0.193221
Ti       1.78040      1.82881      2.09147         1.087968      1.405694      1.427181
Ti       1.99547      1.84534     14.84849        -0.668090      1.421218     -1.120443
Ti       1.89080     13.60932      2.12769         0.301953     -0.817344      0.125732
Ti       1.93947     13.57192     14.67390        -0.250403      0.217819     -0.052104
Ti      13.47189      1.89379      2.11241        -0.062598      0.572276      0.486861
Ti      13.40770      1.89422     14.87076         1.540563      1.069824     -0.561942
Ti      13.50784     13.52702      2.14231        -0.215876      0.310615      1.213451
Ti      13.56985     13.66783     14.63541         0.921732      0.028524     -0.118553
Ti       1.84989      2.02262      6.18431         1.167445     -0.053082      1.165448
Ti       1.89461     13.80192      6.16668         1.563548     -0.638192      0.387931
Ti      13.67191      1.83402      6.21819        -0.146818      1.089380     -0.160544
Ti      13.66913     13.64988      6.20723         0.278469      0.335234     -0.227110
Ti       1.92896      1.91848     10.54153         0.762729     -0.537538     -1.462781
Ti       1.96586     13.51486     10.49406        -0.959805      1.825470     -1.211064
Ti      13.60880      1.90318     10.44445         0.055458     -0.794453      0.870769
Ti      13.76353     13.60335     10.64159         1.070012      1.128944     -0.773747
Ti       2.04025      5.72092      2.16357        -0.592282     -0.299796      1.516296
Ti       1.86011      5.72632     14.85339         0.496169     -0.032740     -0.375202
Ti      13.79495      5.87413      2.20401        -0.046697     -0.959668     -0.818426
Ti      13.58375      5.94904     14.58730        -0.091698     -0.564880      2.209280
Ti       1.92886      5.95919      6.27710        -0.340861     -1.668120     -0.352475
Ti      13.69712      5.79344      6.33188         0.493036     -0.424182      0.016274
Ti       2.22874      5.87449     10.32613        -1.994845     -0.350367      0.482295
Ti      13.81066      5.72552     10.63697        -0.118969      0.434707     -1.279812
Ti       1.87659      9.61929      2.07411         0.240542      0.991923      0.566407
Ti       1.88908      9.66717     14.59721         0.406443     -0.021437      0.625450
Ti      13.62770      9.64830      2.10087         0.641839      0.347197     -0.965108
Ti      13.60377      9.79089     14.53976        -0.514544     -0.588600      1.048885
Ti       1.86806      9.83280      6.37527        -0.316992     -0.489107      0.489388
Ti      13.61962      9.67859      6.37874         0.669718     -0.395332     -0.358319
Ti       2.02142      9.61872     10.47930        -0.191003      0.442975     -1.511966
Ti      13.49577      9.66148     10.57656         0.245144      0.130071      0.731513
Ti       5.78499      1.92011      2.12467         0.940944      0.404340     -0.012080
Ti       5.87692      2.04566     14.65656         0.324271      0.233175     -0.439635
Ti       5.80124     13.68697      2.11113        -0.119839     -1.284684      0.832774
Ti       5.89146     13.77297     14.76454         0.331467      0.084296     -0.612581
Ti       5.83449      1.98593      6.42347        -0.356513     -1.465044      0.179392
Ti       5.81462     13.79318      6.41823        -0.993369      0.080216     -1.797631
Ti       5.80779      1.83278     10.47042         0.608101      0.570067      1.181826
Ti       5.89397     13.59462     10.39782        -0.018848      1.248278      0.257506
Ti       5.95611      5.87206      2.43970        -0.101106      0.017825     -1.559154
Ti       5.85331      5.94628     14.58198         0.091837     -1.127250      0.278633
Ti       5.84434      5.81055      6.32083        -0.267961      0.307644      0.569499
Ti       5.93149      5.85444     10.51828         0.297065     -0.991209     -1.151708
Ti       5.72854      9.79947      2.15963         0.272045      0.052398      1.485611
Ti       5.75021      9.75764     14.69688         1.044886     -0.967084     -1.000276
Ti       5.79003      9.88901      6.30088         0.300756     -1.627612     -1.041490
Ti       5.88082      9.70243     10.42035         0.373162     -0.666836      0.806182
Ti       9.73121      1.92798      2.25979         0.021777      0.683864     -1.136408
Ti       9.70737      2.00517     14.58013        -1.301799      0.756117      0.515897
Ti       9.64887     13.55158      2.18852         0.890070      0.495506     -0.060363
Ti       9.68369     13.73394     14.59341        -0.294856     -1.188263      0.390262
Ti       9.75010      1.81505      6.32852        -0.041762      1.501439     -1.152641
Ti       9.81383     13.63396      6.45089        -0.477487     -1.204697     -0.205597
Ti       9.69530      1.93091     10.49373        -0.359744      0.483123      0.907061
Ti       9.70415     13.64708     10.40617        -0.233124      0.503548      0.633212
Ti       9.77567      5.81814      2.30298        -0.640005     -0.934812     -0.897576
Ti       9.70933      5.91214     14.45917        -0.367768     -1.837447      0.231004
Ti       9.75389      5.66518      6.35601         0.146214      1.189334     -0.593118
Ti       9.85955      5.87686     10.39288        -0.358612     -1.267173      0.974049
Ti       9.61689      9.69338      2.33868         0.498518     -0.146415     -1.122678
Ti       9.64323      9.82155     14.63199         0.973233      0.801667     -0.414602
Ti       9.69105      9.67593      6.41268        -0.296336      0.243017     -0.140152
Ti       9.74863      9.75402     10.34663        -0.926525      0.331098      0.564892
O       1.96688      1.60378      0.35536        -0.115170      0.284033     -1.305940
O       1.78704      2.10830     13.01033         0.287136     -0.367319      0.338330
O       1.68489     13.62034      0.30873         0.611712      0.219953      0.578766
O       2.01427     13.74279     12.93200         0.176095     -0.829245     -0.597713
O      13.31891      1.86256      0.32468         0.552354      0.070292     -0.561686
O      13.67539      1.76181     13.03968        -0.411559      0.357416     -0.225193
O      13.72998     13.34784      0.35527        -0.638608      0.763946     -0.231383
O      13.63541     13.83086     12.84395        -0.500415     -0.680841      0.171681
O       1.85634      1.87593      4.42005         0.033719      0.297861     -0.403747
O       2.02108     13.57005      4.38177        -0.084942      0.200182      0.163708
O      13.68965      2.13978      4.38854        -0.012778     -1.015865      0.693734
O      13.48097     13.72282      4.43432         0.353333     -0.451020      0.389823
O       1.85562      2.01139      8.62920         0.143668     -0.195547      1.804499
O       1.76001     13.55050      8.70816         0.219545      0.284606      0.198059
O      13.70628      1.94188      8.68485        -0.036772     -0.065938     -0.384809
O      13.85942     13.55154      8.83223        -0.430481      0.050194     -0.488405
O       2.14420      5.84218      0.40543        -0.018773      0.527992     -0.223627
O       1.77166      5.55607     13.11601         0.428486      0.340841     -0.822228
O      13.42237      6.04496      0.40088         0.442636     -0.086080      0.491502
O      13.74361      5.76103     12.85867         0.001320     -0.301449     -1.610421
O       1.88378      5.67585      4.44360        -0.197087      0.693058      0.719784
O      13.75910      5.60758      4.49741        -0.194308      0.466446      0.034283
O       2.24159      6.00828      8.53629        -0.319708     -0.581814      0.883623
O      13.72021      5.58812      8.71314        -0.159242      0.762431      1.233043
O       1.93481      9.63834      0.31374         0.098334     -0.131796     -0.505849
O       2.15484      9.60585     12.79807        -0.437092      0.424499      0.171977
O      13.85650      9.76798      0.29751        -0.701766     -0.484152      0.504629
O      13.62213      9.74216     12.76571         0.234789      0.000771     -0.963210
O       1.84821      9.79270      4.56352        -0.014072     -0.119545      0.235786
O      13.83393      9.68797      4.60444        -0.636870      0.380064      0.532182
O       1.79221      9.76414      8.65296         0.865368     -0.377051      0.861461
O      13.53835      9.53518      8.74337        -0.001800      0.327295      0.146660
O       5.95666      2.05374      0.32981        -0.417492     -0.259703     -0.022585
O       5.93054      1.97944     12.74426         0.074832      0.015974      1.591638
O       5.91234     13.66267      0.37201         0.209792      0.292746     -1.556255
O       5.91121     13.66810     12.96682        -0.404122     -0.115045      0.193656
O       5.77717      1.83240      4.68360         0.224792      0.127502     -0.878938
O       5.77567     13.69617      4.58274        -0.129892      0.055821     -0.269387
O       5.84828      1.73556      8.72455        -0.451902      0.474339     -0.913485
O       5.82828     13.80319      8.65118         0.018597     -0.711284      0.053279
O       5.93854      5.77304      0.60176        -0.185344     -0.235956      0.135494
O       5.93144      5.75332     12.81983        -0.201029      0.286268     -0.926854
O       5.96645      5.58247      4.56818        -0.188564      0.519241     -0.358577
O       5.77509      5.74671      8.67310         0.059493      0.715928     -0.072175
O       5.65748      9.63321      0.42052         0.746988     -0.032681     -1.367710
O       5.87472      9.71065     12.86582        -0.078149      0.461318      0.088320
O       5.78178      9.82030      4.48186         0.161123      0.385887      1.082926
O       5.77457      9.66965      8.70226         0.118539      0.232206     -1.298931
O       9.68028      2.01159      0.39204        -0.312873     -0.440873      0.052211
O       9.63348      1.74102     12.81883         0.326521      0.267623     -0.341030
O       9.74663     13.49508      0.45450        -0.366438      0.030500     -1.178850
O       9.79788     13.61791     12.81673         0.101045      0.409302     -0.627574
O       9.89588      1.82958      4.48441        -0.903724     -0.664345      1.532453
O       9.64692     13.88454      4.68574         0.516401     -0.596890     -0.488859
O      10.00477      2.00409      8.75335        -0.178632     -0.326943     -1.584217
O       9.77403     13.54708      8.62748         0.054783     -0.043131     -0.719888
O       9.64870      5.82585      0.39343         0.440959      0.219561      1.159824
O       9.92196      6.15207     12.60535        -0.832633     -0.793870      0.903963
O       9.90698      6.03572      4.58428        -0.445285     -0.758037      0.128280
O       9.88118      5.72487      8.55452        -0.187235     -0.040183      0.035943
O       9.69742      9.64406      0.52796         0.041073      0.117433     -0.147126
O       9.45340      9.58176     12.81365         1.203199      0.162989      0.765702
O       9.53887      9.82165      4.58975         0.487140     -0.732902     -0.467200
O       9.78678      9.74548      8.56296         0.121030      0.094076      0.001651
O       3.96229      1.80035      2.37096        -0.849835     -0.144311      0.013738
O       3.84453      1.77879     14.85083         0.474147      0.316843      0.494838
O       3.82269     13.64043      2.25092        -0.219823      0.277765      0.216180
O       3.95530     13.65236     15.10136        -0.558958      0.115972     -0.441764
O      15.58789      1.93009      2.30840        -0.429018     -0.237699      0.069652
O      15.47893      1.91101     15.08429         0.553218     -0.368681      0.213403
O      15.49326     13.49251      2.53778         0.548786      0.392504     -0.316763
O      15.50103     13.52482     14.86654         0.375762      0.313778      0.018258
O       3.82501      2.04998      6.74816         0.208494      0.038787     -0.353763
O       3.85086     13.68737      6.69130        -0.880627     -0.600257      0.026381
O       0.00637      1.82551      6.56156        -0.423440      0.067633     -0.102301
O       0.06578     13.77666      6.27845        -1.113374     -0.077231      0.556005
O       3.89780      1.97915     10.86727        -0.131070     -0.339281     -0.210378
O       3.89255     13.57795     10.79158         0.898528      0.052940      0.156795
O       0.12962      2.02818     10.89599        -1.383524     -0.229253     -0.173952
O       0.08065     13.55861     10.89345        -0.414413     -0.299222      0.434491
O       3.96335      5.68165      2.67576         0.187243      1.116129     -0.665936
O       3.95799      5.97758     14.96401        -0.423961     -0.330310      0.114779
O       0.08857      5.74295      2.31610        -0.326454     -0.002995     -0.059595
O      15.49432      5.64860     15.22476         0.175955      1.370393     -0.723098
O       3.88769      5.74219      6.45017         0.488125     -0.032784      0.255813
O       0.01476      5.94922      6.70408        -0.230855     -0.091798     -0.033291
O       4.08966      5.89517     10.93975        -2.145509     -0.160046     -0.343483
O       0.19386      5.87468     10.56804        -1.101754     -0.620845      0.342206
O       3.87642      9.63934      2.58943        -0.367571      0.183818     -0.209134
O       3.96931      9.51526     14.94298        -1.419865      0.585925     -0.137261
O       0.01597      9.75204      2.37777         0.003314      0.070348      0.601036
O       0.02831      9.67732     14.62597         0.084541      0.308191      0.192922
O       3.82355      9.75672      6.61750         0.199702      0.568309     -0.190308
O      15.51503      9.59683      6.79943         0.108744      0.205749     -0.576116
O       3.96418      9.69518     10.74842         0.089771      0.205916      0.249175
O       0.17328      9.58674     10.85578        -1.310397      0.417632      0.222760
O       7.82137      1.90780      2.47234        -1.046411     -0.166123      0.423594
O       7.77908      2.10575     14.91849        -0.488179     -0.379849      0.092639
O       7.76125     13.51559      2.47142        -0.352333      0.555068      0.276843
O       7.84158     13.43425     14.93365        -0.940302      0.385438      0.212561
O       7.79093      1.78307      6.79517         1.037553      0.246814     -0.606637
O       7.68196     13.70808      6.58785         1.586245      0.030215      0.718668
O       7.79173      1.69067     10.65483         0.378847      0.340308      0.275480
O       7.77456     13.47094     10.67306         1.078200      0.767096      0.126509
O       7.87960      5.65726      2.66648        -0.798602      0.234829      0.080854
O       7.77577      5.88012     14.71618         1.224166      0.021734      0.448508
O       7.77620      5.90823      6.68910         0.238456     -0.518383     -0.045436
O       7.78506      5.93944     10.64614         1.542130     -0.256395      0.130374
O       7.76880      9.69428      2.51579        -0.545353      0.378228     -0.122538
O       7.81196      9.78648     15.08353        -0.085569      0.094140     -0.156590
O       7.69634      9.70265      6.73797        -0.580665      0.095988     -0.352009
O       7.83902      9.70188     10.72833         0.265177      0.176660     -0.417617
O      11.62100      1.96825      2.34995         1.606396     -0.630839      0.673945
O      11.52811      1.90913     14.92490         0.765159     -0.357479     -0.193041
O      11.58983     13.68855      2.35885         1.108034     -0.086280      0.247590
O      11.64375     13.65805     14.99951         0.455291      0.106526     -0.179659
O      11.72387      1.71715      6.43320         0.249241      0.305967      0.428502
O      11.76579     13.60197      6.61241        -0.779727     -0.013565      0.320695
O      11.78215      1.83241     10.86194        -0.248687      0.363257      0.113095
O      11.75059     13.57644     10.70258         0.373379     -0.224129      0.279350
O      11.66130      5.79555      2.46975         0.819462      0.544565      0.378969
O      11.65661      5.77543     14.78053         0.460038      0.602757     -0.000166
O      11.76271      5.64648      6.52090        -0.161904      0.295983      0.397671
O      11.67549      5.48963     10.66834         0.642487      0.507461     -0.031637
O      11.75957      9.57035      2.38917        -0.806385      0.051376      0.890130
O      11.67428      9.67919     14.89951        -0.244127     -0.076325     -0.147011
O      11.57780      9.77105      6.44582         1.445774      0.014119      0.389403
O      11.64590      9.66628     10.82552         0.761878      0.217947     -0.147919
O       2.13026      3.78667      2.31830        -0.591467     -0.246657      0.013520
O       1.91780      3.91746     15.32769         0.680492     -1.649016     -0.488137
O       1.86927     15.55021      2.52288        -0.142709     -0.863747     -0.404982
O       1.86283     15.50566     14.90940        -0.023698      0.376752      0.357698
O      13.69008      3.89401      2.16199        -0.428251      0.002687      0.400817
O      13.48783      3.89802     15.07234         0.116576     -0.552448     -0.396893
O      13.63667     15.56675      2.26642         0.109292     -0.482518      0.346875
O      13.52241     15.57856     15.10241         0.109696     -1.253212     -0.106388
O       1.72301      3.93278      6.57849         0.485276     -0.620356      0.093303
O       2.06603      0.08435      6.52286        -0.532885     -0.903664      0.076347
O      13.71932      3.76706      6.60107         0.173417     -0.003472      0.001798
O      13.76077     15.55937      6.58622        -0.337230     -0.305871      0.015560
O       2.13126      3.95317     10.75570        -0.064450      0.327304     -0.288746
O       2.01171     15.58583     10.74501        -0.062640      0.538147      0.249127
O      13.62478      3.77212     10.91594         0.785524      0.874428      0.071838
O      13.79467     15.59186     10.71918        -0.091122     -0.196288      0.498170
O       1.92096      7.71598      2.51782         0.284261      0.384087      0.037572
O       1.88914      7.76000     15.03676        -0.215624      0.068799     -0.341736
O      13.86777      7.78915      2.57373        -0.498531     -0.443075     -0.046899
O      13.66912      7.85928     14.70323         0.263136     -1.265421      0.403982
O       2.06440      7.78494      6.44137        -0.068767      0.895121     -0.077237
O      13.54027      7.64791      6.55852        -0.134116      1.604910      0.302609
O       2.08884      7.75342     10.78034         0.454013     -0.547239     -0.051764
O      13.73343      7.65361     10.88448        -0.264542      0.386495     -0.472435
O       1.98021     11.57794      2.40706        -0.094037      1.072418      0.068676
O       2.00764     11.62349     14.96203         0.014536     -0.018521     -0.561850
O      13.46549     11.59895      2.49679         0.501848      0.275198      0.276684
O      13.55426     11.62310     14.90741         0.129470      1.447805     -0.332966
O       1.80050     11.75162      6.65172         0.319471     -0.714577     -0.411130
O      13.73195     11.76331      6.68395        -0.125046     -0.944803     -0.220685
O       2.04954     11.67285     10.76507        -0.109324     -1.281575      0.600419
O      13.76624     11.58439     10.71658        -0.370839     -0.364738      0.296537
O       5.85965      3.74412      2.65268         0.066484      0.455977     -0.454860
O       5.78815      3.96293     14.96791        -0.188909     -0.591654     -0.010311
O       5.85164     15.55757      2.45036         0.196708      0.050334     -0.096504
O       6.02140      0.12404     14.92729        -0.261799     -1.687301      0.046873
O       6.00899      3.81365      6.71314        -0.680817      1.017680     -0.299349
O       5.67382     15.60080      6.70341         0.283434      0.836810      0.031269
O       5.99956      3.83452     10.63569        -0.128407      0.089983      0.263460
O       5.95927     15.54227     10.85824        -1.101475     -1.061009      0.101913
O       5.88651      7.77545      2.48299         0.134942     -0.576596      0.755213
O       6.02964      7.79158     14.89883        -0.425540      0.632658      0.293431
O       5.73045      7.81088      6.37840         0.055969     -0.419438      0.689067
O       6.00646      7.76325     10.78980        -1.052646      0.862028     -0.155118
O       5.74321     11.71563      2.17624        -0.171500     -0.676733      0.830968
O       5.81700     11.61592     15.02130        -0.219713      0.655901     -0.020808
O       5.76246     11.79944      6.65733         0.127113     -1.568301     -0.039419
O       5.97954     11.70339     10.76655        -1.175452     -1.015374     -0.032367
O       9.81312      3.77727      2.61362        -0.511268      1.735176      0.185742
O       9.65732      3.95336     14.70365         0.438720     -0.125175     -0.226083
O       9.69564     15.59646      2.41487        -0.064874     -1.319406      0.198518
O       9.50110     15.56552     15.01277         0.720956      0.196731     -0.106616
O       9.81781      3.84236      6.27043        -0.552492     -0.969292      0.820782
O       9.79286     15.56243      6.77923        -0.081303     -0.246887     -0.009802
O       9.47032      3.79451     10.77663         0.856046      0.525755      0.114862
O       9.89549     15.54248     10.58888        -0.354766     -1.092833      0.234490
O       9.62725      7.73283      2.61183         0.443981      0.664562     -0.233534
O       9.86428      7.73689     14.87116        -0.684894      1.172307      0.272515
O       9.71012      7.75447      6.65956         0.200482      0.697093      0.411488
O       9.92687      7.74575     10.41872        -0.311863      0.449825      0.331685
O       9.71939     11.70004      2.74933         0.521073     -0.723236     -0.359162
O       9.85225     11.71381     14.76070        -0.156299     -1.180414      0.347190
O       9.46526     11.66140      6.50245         0.576401      1.127612      0.119466
O       9.85326     11.65058     10.70116        -0.009249     -0.190237      0.356866
