  # total energy = -7880.41037973 
CRSYTAL
PRIMVEC
    15.6080000000000005    0.0000000000000000    0.0000000000000000
     0.0000000000000000   15.6080000000000005    0.0000000000000000
     0.0000000000000000    0.0000000000000000   16.6239999999999988
PRESSURE
-0.16081 -0.340993 0.212795 -0.049168 -0.219495 -0.039732
PRIMCOORD
320 1
Pb       4.02770      4.02976      4.24426        -0.515892     -0.232863     -0.352366
Pb       3.96412      4.01021     16.48924        -0.168025     -0.343360      0.562056
Pb       3.92233      0.11766      4.02516        -0.149816     -0.863520      0.040351
Pb       3.83466      0.03478     16.43646         0.177212     -0.553992      1.158404
Pb       0.10764      3.84843      4.18874        -0.174938      0.106814     -0.573669
Pb      15.58876      3.76081     16.60946        -0.050975      0.522853      0.374872
Pb      15.43789      0.03163      4.09838         0.296979     -0.073571      0.235548
Pb      15.51416      0.03367     16.57165         0.526966      0.052384      0.190185
Pb       3.80085      3.80506      8.23807         0.321150      0.797945     -0.014746
Pb       3.94279     15.54140      8.08123        -0.887224      0.366714      1.274982
Pb      15.53554      3.88370      8.36106        -0.086613     -0.131665     -0.551233
Pb      15.60291     15.54707      8.23571        -0.258823      0.263034      0.154229
Pb       3.73533      3.88871     12.61129         0.448605      0.276613     -0.263118
Pb       3.89618     15.50971     12.54318        -0.185259      0.406186     -0.238763
Pb       0.00313      3.99538     12.62409        -0.064476     -0.366067     -0.100281
Pb       0.17640     15.55357     12.45691        -0.475715      0.199527      0.205427
Pb       3.83195      7.88973      4.03305         0.179863     -0.137759      0.523569
Pb       3.97794      7.70158     16.58999        -0.262076      0.583429     -0.374280
Pb       0.10329      7.83814      4.17755        -0.689421     -0.506524     -0.362984
Pb      15.50399      7.74025     16.59326         0.288204      0.115715      0.016490
Pb       3.81824      7.72615      8.32425        -0.149441      0.489472     -0.243786
Pb      15.34953      7.68154      8.51279         0.303701      0.386609     -0.464708
Pb       3.98938      7.81480     12.34497        -0.117758     -0.439539      0.808642
Pb      15.42901      7.76228     12.51771         0.574756      0.173154      0.402423
Pb       3.80529     11.68608      4.03405         0.640298      0.433079     -0.023825
Pb       3.94759     11.63971     16.58356        -0.131497     -0.019260      0.116893
Pb      15.56662     11.67254      4.11355        -0.144194      0.394200     -0.005521
Pb      15.50357     11.74726     16.55625         0.702018      0.329664      0.216970
Pb       3.85346     11.87490      8.27175         0.299368     -0.706020     -0.634990
Pb       0.12082     11.64078      8.12463        -0.812325      0.151218      0.976098
Pb       3.99033     11.55995     12.22742        -0.330570      0.075031      0.889018
Pb       0.12834     11.63448     12.42458         0.356358      0.119684      0.229621
Pb       7.81403      3.67173      4.13047        -0.070669      1.251860      0.333516
Pb       7.94768      3.98844     16.55998        -0.655787     -0.252288      0.281652
Pb       7.83912     15.47440      4.15124        -0.443945      0.148901     -0.500641
Pb       7.84069      0.13857     16.54588        -0.721831     -0.162683      0.301887
Pb       7.62415      3.78894      8.52155         0.164056      0.170751     -0.759763
Pb       7.77707      0.03629      8.18220         0.150779      0.101042      1.113661
Pb       7.79498      3.56702     12.53514        -0.205450      0.788013      0.066569
Pb       7.74151     15.45936     12.45642         0.011458      0.384523     -0.466036
Pb       7.96783      7.84431      4.18885        -0.636530     -0.386589     -0.171156
Pb       7.64015      7.77986     16.59284         0.403347      0.166760      0.151066
Pb       7.80433      7.83284      8.13928        -0.193464     -0.256101      0.186418
Pb       7.82828      7.64095     12.38640         0.050265      0.041690     -0.252654
Pb       7.87919     11.59130      4.13762        -0.354542      0.398676     -0.643424
Pb       7.76776     11.86969     16.50849        -0.434517     -0.720815      0.843424
Pb       7.76535     11.69704      8.15450        -0.536575     -0.235873      0.758152
Pb       7.84266     11.58058     12.34470        -0.133180      0.225250     -0.093070
Pb      11.76948      3.69021      4.25794        -0.560174      0.538300     -0.251394
Pb      11.69643      4.10517      0.31778         0.103000     -0.146051     -1.138397
Pb      11.38653     15.45797      4.12114         0.712502      0.170570     -0.085132
Pb      11.70084     15.58213     16.50409         0.080827      0.103915      0.623850
Pb      11.66411      4.15314      8.43069        -0.042713     -0.785343     -0.747419
Pb      11.71481      0.21839      8.41676         0.281555     -0.388512     -0.277714
Pb      11.83745      3.76113     12.50714        -0.666453      0.426101      0.110192
Pb      11.53811     15.53432     12.37015         0.736677     -0.198919      0.086906
Pb      11.58741      7.70672      4.13290         0.613578     -0.065007      0.016080
Pb      11.70605      7.87709      0.03724        -0.239044     -0.536226     -0.247241
Pb      11.64615      7.80576      8.35902         0.223760     -0.058192     -0.290223
Pb      11.47844      8.02782     12.50425         0.343842     -0.680342     -0.270825
Pb      11.86811     11.32114      4.16491        -0.913755      1.180766      0.679825
Pb      11.70909     11.62606     16.60156        -0.010778      0.513439      0.493679
Pb      11.79773     11.91099      8.41015         0.292336     -0.405214      0.122089
Pb      11.83811     11.78358     12.45431        -0.745472      0.242285     -0.116803
Ti       1.92900      1.88181      2.30104         0.145609      0.860991     -1.738867
Ti       1.89233      1.93308     14.81234         0.061523      0.256522      0.295151
Ti       1.80581     13.62109      2.21152         1.532277      0.330983     -0.588571
Ti       1.95675     13.56231     14.63872         0.300764      1.294850     -0.134263
Ti      13.62392      1.90420      2.20366         0.263538     -0.009069     -0.151199
Ti      13.51900      1.98255     14.67298         1.665553      0.605798      1.345724
Ti      13.54831     13.58899      2.25057        -0.351409      0.484002      0.032972
Ti      13.60029     13.73279     14.60680         0.141705     -0.064247     -0.657228
Ti       1.86562      2.02149      6.44831        -0.506977     -0.323174     -0.839144
Ti       1.81998     13.71663      6.24098         0.621971      0.478198      0.447900
Ti      13.56684      1.94802      6.33494         0.520176     -0.388522      0.417341
Ti      13.61557     13.62833      6.31270        -0.337685      0.476970     -0.412587
Ti       1.93814      2.01871     10.53119         0.482875     -0.250620      1.126885
Ti       2.00535     13.72425     10.50661        -0.183704     -0.050559      0.583243
Ti      13.73596      1.87456     10.59090        -0.136180     -0.378792     -0.266350
Ti      13.71103     13.59294     10.49962        -0.574734      1.112425      0.314878
Ti       1.88717      5.82849      2.11207         0.468643     -0.989178      0.110775
Ti       1.87103      5.90216     14.74470         0.651470     -0.546483      0.176591
Ti      13.65403      5.84509      2.22291         0.403357     -0.430218      0.129284
Ti      13.57249      5.93466     14.73998        -0.059566     -1.220289      0.302888
Ti       1.84004      5.99085      6.27837         0.856015     -0.553071      2.021709
Ti      13.61051      5.79425      6.27014        -0.161835      0.192563      0.631524
Ti       1.85803      5.94132     10.64540         1.526287     -0.492383     -0.541340
Ti      13.61422      5.82577     10.60253        -0.616431     -0.073168      0.533854
Ti       1.86284      9.72503      2.16335         1.044898      0.577600     -0.826210
Ti       1.87854      9.72965     14.72835         0.966757      0.018510     -0.148983
Ti      13.72881      9.67238      2.16719        -1.090804     -0.002109     -0.075279
Ti      13.61603      9.86002     14.66455         0.619244     -1.716265     -0.428006
Ti       1.82187      9.76745      6.28892         2.047428     -0.590525      0.719096
Ti      13.57409      9.70643      6.51331         0.525647     -0.070224     -0.063297
Ti       1.89294      9.67788     10.53247         0.764136      0.019540     -0.502856
Ti      13.65353      9.74910     10.69370        -0.436005     -0.103175     -2.360707
Ti       5.83367      1.96394      2.19213        -0.253064      0.417323     -0.641877
Ti       5.80224      1.97208     14.67801         0.046905      0.137481     -0.370784
Ti       5.83021     13.66135      2.11364        -1.182831     -0.000791     -0.028984
Ti       5.83426     13.66865     14.55046        -0.557914     -0.115598      2.111557
Ti       5.86952      1.89291      6.30357        -0.280209      1.511959     -0.429169
Ti       5.84060     13.65881      6.29784        -0.387143     -0.957721     -0.441482
Ti       5.72850      1.86854     10.56675         0.076301      0.150606      0.329714
Ti       5.82210     13.60732     10.47576         0.429064     -0.251875      0.614853
Ti       5.81471      5.89712      2.33071         0.682035     -1.294425     -0.719138
Ti       5.86644      5.87138     14.67735        -0.898502     -0.558366     -0.531249
Ti       5.82193      5.87854      6.36638        -0.235019     -1.049963     -0.064122
Ti       5.81967      5.72887     10.58460        -0.188635     -0.307256      0.319572
Ti       5.83667      9.71371      2.26660         0.091512      0.728054     -0.097875
Ti       5.94687      9.78314     14.58757        -1.713281     -0.264606      1.724935
Ti       5.83381      9.71751      6.31502        -1.615118      0.304243      0.631691
Ti       5.95164      9.64928     10.40468        -1.045118     -0.113770     -0.390634
Ti       9.78144      2.01295      2.21099        -0.503999     -0.355817     -0.980014
Ti       9.76327      1.90775     14.74698        -0.311113      1.785405     -0.605009
Ti       9.65862     13.66799      2.05814         0.604625     -0.318907      0.576017
Ti       9.73120     13.64411     14.67609         0.101623     -0.016656     -0.119585
Ti       9.73500      1.90724      6.44686         0.426642      1.312336     -0.490930
Ti       9.73241     13.61489      6.47673         0.903796      0.555158     -0.183543
Ti       9.73714      1.91494     10.53282        -0.482669     -0.119214      1.502770
Ti       9.69671     13.61038     10.48320         0.728516      0.357574     -0.270289
Ti       9.72994      5.83838      2.28502        -0.849800     -1.474776      0.065518
Ti       9.72798      5.91447     14.67249         0.087446     -0.940767      0.367062
Ti       9.68238      5.78637      6.32213        -0.056666     -1.020047      0.068601
Ti       9.78781      5.70730     10.59410        -0.693221      0.298193      0.478525
Ti       9.74294      9.75799      2.15870        -0.553236      0.270558      0.134818
Ti       9.76372      9.79155     14.69480        -0.609810     -1.397770     -0.542048
Ti       9.80148      9.81883      6.35572        -0.173577     -1.150098     -0.201351
Ti       9.75306      9.79441     10.37092         0.009321     -0.351877      1.610610
O       1.88652      1.81634      0.47673        -0.043217      0.289396      0.394525
O       1.94794      1.92679     13.05767        -0.203904     -0.221591     -1.364487
O       1.98056     13.49907      0.44894        -0.331581      0.476199      0.017737
O       2.01223     13.73683     12.81133        -0.454728     -0.487265      0.779931
O      13.70042      1.82954      0.41642        -0.543324      0.031847      0.180099
O      13.75409      2.04118     12.95205        -0.183891     -0.059086     -1.148858
O      13.51953     13.34730      0.48059         0.175598      0.491647     -0.616340
O      13.45761     13.72247     12.82236         0.499242     -0.654715      0.541164
O       1.70489      2.07262      4.66594         0.430749     -0.223404      0.039630
O       1.84630     13.75960      4.50654        -0.295268     -0.567406     -0.508550
O      13.58574      2.09607      4.51890         0.256838     -0.715097      0.689091
O      13.73753     13.61511      4.49280        -0.482343     -0.289273      0.650365
O       1.82320      2.04860      8.79644         0.197676     -0.174990     -1.098472
O       1.92202     13.73119      8.73791         0.015424     -0.469161      0.064466
O      13.70354      1.87976      8.76849        -0.485257      0.067539      0.979128
O      13.59454     13.70697      8.70934         0.159279     -0.298438      0.382047
O       2.02075      5.72840      0.30270        -0.173384      0.648060      0.989590
O       1.84588      5.75378     12.96531        -0.275567      0.076026     -0.522377
O      13.60433      5.83432      0.41902         0.049628      0.447953      0.133667
O      13.61306      5.82362     12.95384         0.461657      0.046844      0.134181
O       1.84439      6.02604      4.54812        -0.049612     -0.343601     -0.396318
O      13.60798      5.89611      4.51337         0.060129     -0.145329     -0.169874
O       1.97695      6.08356      8.85938        -0.708482     -0.319265      0.283969
O      13.53296      5.82232      8.79555         0.256675     -0.081038      0.222349
O       1.81155      9.82695      0.36932        -0.144357     -0.091460      0.890107
O       1.74873      9.83601     12.93622         0.451404     -0.034080      0.194103
O      13.69259      9.75197      0.34551        -0.386639      0.070075      0.714645
O      13.64036      9.82379     12.81285        -0.195978     -0.321348      0.202327
O       1.94752      9.77515      4.48890        -0.365953     -0.218393      0.468194
O      13.49329      9.73049      4.69625         0.635109     -0.373897      0.175992
O       1.84657      9.55323      8.75604         0.087383      0.504643      0.293938
O      13.57832      9.74343      8.80530         0.280629     -0.548920      0.206882
O       5.79110      2.02535      0.39195         0.124005     -0.344737      0.637468
O       5.83659      1.87421     12.84978         0.104200     -0.168690      0.830452
O       5.79023     13.69902      0.30624         0.311481     -0.218823      1.209457
O       5.85330     13.55377     12.82234         0.229259     -0.093133     -1.072554
O       5.85487      1.82744      4.47211         0.014517      0.269614      1.532565
O       5.94005     13.63958      4.50365         0.185492      0.303211      1.313571
O       5.82707      1.84585      8.75247         0.055791      0.448781      0.354972
O       5.72802     13.53866      8.72682         0.250716      0.261443     -0.506775
O       5.73906      5.78403      0.48681         0.026805      0.676245      0.321879
O       5.69034      5.87619     12.93167         0.946594      0.244281     -0.991739
O       5.85986      5.82679      4.60979        -0.551049      0.052147     -0.572119
O       5.94082      5.57313      8.80466        -0.391589      0.383574      0.019080
O       5.78046      9.60414      0.51765         0.159769      0.083230     -0.579690
O       5.82625      9.68136     12.85697         0.339556      0.149469     -0.164946
O       5.75135      9.77913      4.51885         0.408089     -0.091966      0.478247
O       6.05233      9.68354      8.63493        -0.082731      0.110915     -0.010441
O       9.73843      1.89249      0.38454         0.055126      0.283965     -0.055280
O       9.59300      1.97856     12.96325         0.300976     -0.589319      0.221561
O       9.55298     13.61941      0.30120         0.660299      0.377604     -0.011353
O       9.77284     13.57591     12.90160        -0.300216      0.028356     -0.148394
O       9.85710      1.94169      4.64593        -0.378482     -0.088967     -0.453864
O       9.69979     13.70595      4.71018        -0.303979     -0.059535     -0.820065
O       9.66719      1.82618      8.80719         0.392940      0.362062     -1.826500
O       9.80671     13.52915      8.69959        -0.077934      0.367640     -0.064304
O       9.63006      5.76544      0.51921         0.593856      0.015507     -1.114744
O       9.63865      5.79527     12.93655         0.393191      0.494488     -0.867534
O       9.82834      5.67826      4.55376        -0.220384      0.813526      0.049001
O       9.74113      5.69698      8.79390         0.272206      0.185421      0.039128
O       9.70563      9.69865      0.40353         0.447119     -0.303720      0.015645
O       9.81760      9.67133     12.85593        -0.496003      0.612733      0.975969
O       9.75155      9.58785      4.52566         0.087109      0.821365      0.247083
O       9.58887      9.74560      8.61388         0.505669     -0.219091     -0.055556
O       3.80300      1.94902      2.56625         0.840475     -0.005969      0.149017
O       3.84246      1.91579     15.07159         0.786722      0.143137     -0.494553
O       3.90855     13.73482      2.55537         0.101372     -0.322660     -0.095917
O       3.89823     13.70933     14.81758        -0.432807     -0.540142      0.219682
O      15.56321      1.79963      2.51408        -0.786856      0.824133      0.256245
O       0.01779      2.01254     15.13107        -1.122471     -0.889247     -0.450904
O      15.55321     13.50937      2.37612        -0.478524      0.174427      0.383709
O      15.47270     13.60276     14.90405         0.123932     -0.401149      0.075786
O       3.78971      1.93728      6.70307         0.360317     -0.337209     -0.344038
O       3.85775     13.71019      6.63645        -0.006879     -0.316953     -0.324005
O      15.49498      1.80436      6.74686         0.383969      0.848640     -0.121052
O      15.49971     13.68707      6.70170         0.942785     -0.327094     -0.177655
O       3.88281      1.78404     10.90658        -0.314118      0.456459     -0.293656
O       3.93175     13.53262     10.75565        -0.597527     -0.042853      0.237159
O       0.02907      1.82596     10.83180        -0.120460      0.449515      0.268175
O       0.02014     13.63924     10.89695        -0.116786     -0.118305     -0.478605
O       3.83004      5.91281      2.71806        -0.058174      0.120768     -0.731096
O       3.87588      5.82259     14.87359        -0.434276      0.138643      0.826502
O       0.03163      5.90520      2.52519        -0.485022      0.001875     -0.188001
O      15.57313      5.87805     15.13606        -0.240854     -0.425944     -0.632634
O       3.83342      5.73577      6.69403        -0.007533      0.374972     -0.153237
O      15.52087      5.81668      6.62777         0.582524      0.541249      0.256535
O       3.85275      5.86811     10.92836         0.587459      0.358818     -0.206080
O      15.57638      5.90328     10.91111        -0.217762     -0.299489     -0.109647
O       3.89065      9.82958      2.49116        -0.952765     -0.719967     -0.054385
O       3.81361      9.70202     15.09009         0.187932      0.631025     -0.466120
O      15.54270      9.77192      2.60980         0.602875      0.366340     -0.272407
O      15.51378      9.77289     14.93946        -0.414777      0.381732      0.142971
O       3.96895      9.74352      6.78675        -0.789993      0.264338     -0.383199
O       0.02023      9.60022      6.68894        -0.513056      0.361504     -0.255404
O       3.94103      9.39143     10.65459        -0.457204      1.756363      0.124632
O      15.56992      9.77512     10.75454        -0.111120      0.137625      0.558777
O       7.77975      2.12212      2.48060        -0.207091     -0.639152     -0.297880
O       7.68318      2.02044     15.01953         1.214962     -0.522907     -0.058211
O       7.81786     13.71230      2.52637        -0.532086     -0.218655     -0.090322
O       7.77701     13.63616     14.99966         0.393948      0.112544     -0.883608
O       7.79078      1.92179      6.64234        -0.769664     -0.451382      0.062387
O       7.80196     13.67425      6.86788        -0.419922     -0.017840     -1.150360
O       7.78680      1.95916     10.78918        -0.610933     -0.169920      0.305769
O       7.80733     13.55204     10.81260        -0.277946      0.066956      0.045786
O       7.76922      5.69399      2.50458        -0.076008      0.339504      0.424615
O       7.73117      5.81423     14.99611         0.808576      0.447523      0.206875
O       7.73460      5.81457      6.52837         0.936800      0.184873      0.710063
O       7.80978      5.69802     10.86415        -0.079339      0.126638      0.065946
O       7.81792      9.71721      2.52332         0.201959     -0.168942      0.386015
O       7.73856      9.78408     15.09634         0.647525     -0.078078     -0.807089
O       7.74093      9.79311      6.55789         0.770143     -0.269623     -0.219650
O       7.78053      9.69205     10.88618         1.811147      0.119014     -0.218664
O      11.65593      1.94785      2.54304         0.687001     -0.331817     -0.211367
O      11.69880      1.88964     14.93737        -0.799774     -0.332298     -0.056560
O      11.57232     13.83384      2.31086        -0.255678     -0.681417      0.530280
O      11.67319     13.75112     14.96466        -0.707854     -0.388002      0.405748
O      11.63690      1.97677      6.75113         1.055763     -0.054469      0.143006
O      11.72309     13.47953      6.64043        -0.370100      0.309877      0.015335
O      11.62071      1.82885     10.93615         1.368697      0.494779     -0.365622
O      11.71310     13.66346     10.78771        -0.637643     -0.033731      0.044679
O      11.77170      5.88673      2.42054        -0.583198     -0.046359      0.176619
O      11.63449      5.91514     15.06201         0.531031      0.371699      0.182427
O      11.68134      5.73497      6.63747        -0.307002      0.221259      0.401939
O      11.72920      5.73532     10.94574        -0.341754      0.045460     -0.399114
O      11.69202      9.68951      2.54908        -0.184873     -0.467358     -0.612600
O      11.66265      9.53969     14.99553        -0.011253      0.356089     -0.089203
O      11.72941      9.78547      6.68570        -1.402155     -0.089624      0.268892
O      11.66012      9.82697     10.79021        -0.527383     -0.795478      0.041045
O       1.88437      3.93799      2.55251        -0.161671      0.089543      0.038571
O       1.91621      3.84321     14.99518        -0.052004      0.557474      0.139784
O       1.90156      0.04827      2.61238        -0.223388     -1.384895     -0.009088
O       1.85443     15.48884     15.10432        -0.175969      0.304355     -0.434449
O      13.62611      3.85974      2.40964         0.086900      0.203108      0.093141
O      13.57946      3.87765     15.12877         0.067200      0.222857     -0.373802
O      13.60047     15.49127      2.49449         0.248052      0.585511      0.019636
O      13.66769     15.60295     14.92816        -0.196771     -0.004770      0.374968
O       1.86148      3.96040      6.76532        -0.475665     -0.469482     -0.165890
O       1.85182     15.56598      6.64891         0.128969      0.671106      0.164976
O      13.68471      3.85638      6.71147        -0.165020      0.252219     -0.107595
O      13.58035     15.58818      6.56419        -0.331959     -0.080573      0.142232
O       2.06133      3.93369     10.87407        -0.862736     -0.571105      0.002300
O       2.05432      0.03618     10.92691        -0.606621     -1.023353     -0.449312
O      13.74353      3.92168     10.95764        -0.164735     -0.886992     -0.435987
O      13.60524     15.60205     10.94315         0.313298      0.098231     -0.507343
O       1.85695      7.83208      2.39760         0.239171      0.213905      0.240500
O       1.88675      7.81458     14.92091        -0.279563     -0.069334      0.367693
O      13.74330      7.82561      2.54024        -0.319305      0.084309     -0.315573
O      13.71482      7.78705     15.02272        -0.440515      0.429618     -0.082412
O       2.04997      7.86032      6.61744        -0.369359     -0.465944     -0.356539
O      13.52697      7.69754      6.85175         0.270712      0.630525     -0.400008
O       1.88865      7.82297     11.07867        -0.555347     -0.137768     -0.256560
O      13.67479      7.77640     10.83260        -0.223906      0.269778      0.102948
O       1.95001     11.69946      2.53192        -0.354175     -0.215203      0.223041
O       1.81119     11.78025     15.03952         0.355319     -1.174355     -0.430150
O      13.52089     11.60926      2.67647         0.667454      0.071388     -0.793547
O      13.30154     11.62599     14.84410         0.715417      1.239608      0.228484
O       1.85389     11.75120      6.58301         0.203264     -0.693944      0.009517
O      13.74750     11.64046      6.72364        -0.009599      0.150523     -0.099484
O       2.01670     11.64443     10.96254        -0.342881     -0.001403     -1.093961
O      13.44761     11.68043     10.75024         1.186322      0.829340      0.200696
O       5.66680      3.92905      2.62181         0.365750     -0.435856     -0.017999
O       5.88242      3.93571     14.91972        -0.733106     -0.687717      0.062756
O       5.82536      0.03565      2.51318         0.424213     -0.103129     -0.289428
O       5.80350     15.58697     14.91318         0.431418      0.243093     -0.225697
O       5.76711      3.78733      6.59456         0.206801     -0.293630      0.256641
O       5.83171     15.59628      6.80780         0.342320     -0.227752     -1.151932
O       5.67518      3.76252     11.00092         0.521619      0.758376     -0.790320
O       5.81894     15.43743     10.90732         0.376411      0.924487     -0.242747
O       5.90515      7.77430      2.62527        -0.320671      0.206855     -0.102765
O       5.74263      7.80825     15.03010         0.787901      0.382060     -0.078988
O       5.81396      7.73375      6.69645         0.263436      0.617396     -0.164561
O       5.95496      7.78260     10.76007         0.130397     -1.707498      0.214796
O       5.80032     11.69598      2.46164         0.511084      0.372432     -0.007384
O       5.85808     11.72215     15.07895        -0.342270     -0.555048     -0.886625
O       5.73492     11.77878      6.68663         0.721258     -0.291075     -0.296851
O       5.86231     11.53952     10.85502        -0.008971      0.878844     -0.463781
O       9.83326      3.86408      2.60417         0.077277      0.103750     -0.269296
O       9.84771      3.90833     14.99644        -0.622431     -0.323754      0.368538
O       9.60606      0.11408      2.42993         0.116343     -1.472444      0.659970
O       9.69992     15.59594     14.90368        -0.141236     -0.354233      0.375362
O       9.69122      3.84775      6.70679         0.023784      0.524996      0.228335
O       9.79730     15.59922      6.60857        -0.168769     -0.630144      0.787932
O       9.83796      3.78520     11.00283        -0.224535      0.954206     -0.722745
O       9.70354     15.58541     10.77729        -0.220405     -1.022031      0.509625
O       9.72875      7.64526      2.48310        -0.000112      2.314106      0.582662
O       9.59854      7.81304     14.93497         0.184933      0.084077      0.323385
O       9.74293      7.81950      6.51184         0.005741     -0.563402      0.762773
O       9.86549      7.75009     10.79736        -0.600375      0.196849     -0.104547
O       9.66868     11.68774      2.42821         0.265147      0.061311      0.068818
O       9.83253     11.60934     15.10934        -0.321541      1.173757     -0.798832
O       9.67623     11.64460      6.64699        -0.018917      0.516723     -0.215723
O       9.74682     11.70610     10.77688        -0.224349     -0.854124      0.016454
