  # total energy = -7879.05729749 
CRSYTAL
PRIMVEC
    15.6080000000000005    0.0000000000000000    0.0000000000000000
     0.0000000000000000   15.6080000000000005    0.0000000000000000
     0.0000000000000000    0.0000000000000000   16.6239999999999988
PRESSURE
-0.731089 -0.842497 -0.678217 -0.014486 -0.398159 -0.045243
PRIMCOORD
320 1
Pb       3.73851      3.83711      4.14676         0.340253      0.103527     -0.082029
Pb       3.74102      3.73621     16.58626         0.112596      0.119680     -0.388746
Pb       3.93843     15.43362      4.32021        -0.339209     -0.059476     -0.599061
Pb       4.00888      0.00288      0.07000        -0.220315     -0.335249     -0.309778
Pb      15.59652      3.89695      4.14644        -0.276275     -0.103489      0.598650
Pb      15.59159      3.96607     16.61630        -0.101173     -0.301567     -0.119844
Pb       0.09543     15.59670      4.31317        -0.262250     -0.446109     -0.307907
Pb      15.59784     15.55875      0.03569         0.201298      0.054443     -0.271119
Pb       4.05836      4.05519      8.30067        -0.442512     -0.604411      0.273683
Pb       3.88384     15.60484      8.46766        -0.038464     -0.303552     -0.565089
Pb       0.11928      3.94966      8.25936        -0.596345     -0.242466     -0.474621
Pb      15.59526      0.06362      8.37607        -0.096538     -0.455512     -0.561985
Pb       3.96205      3.87298     12.33036        -0.604789     -0.090770     -0.311550
Pb       3.93662      0.14138     12.35315         0.159375     -0.535977      0.293925
Pb      15.49644      3.82209     12.36099         0.745710      0.177398     -0.009523
Pb      15.46470     15.54155     12.31494         0.440205     -0.239661      0.202301
Pb       3.95216      7.66209      4.23498        -0.221354      0.379742     -0.844158
Pb       3.86340      7.84755      0.05419        -0.092796     -0.078749     -0.259502
Pb      15.49287      7.72344      4.14442         0.092317      0.616812     -0.744055
Pb       0.01504      7.78200      0.01450        -0.069600      0.269477      0.378612
Pb       3.91471      7.85690      8.27152         0.222440     -0.054517     -0.073705
Pb       0.20104      7.88169      8.01489        -1.182965     -0.991959      1.100330
Pb       3.76389      7.79394     12.48098        -0.146780      0.358810     -0.108876
Pb       0.05079      7.73249     12.39100        -0.322490      0.385963      0.004545
Pb       4.00555     11.58650      4.29389        -0.495417      0.465641     -0.502848
Pb       3.91330     11.63939     16.61377        -0.522807      0.316063      0.755943
Pb       0.06719     11.66853      4.25378        -0.040883      0.032362     -0.792854
Pb       0.02519     11.59764     16.57577         0.061324      0.030880      0.607965
Pb       3.89267     11.47690      8.35298         0.183100      0.696559     -0.106526
Pb      15.58426     11.72821      8.40283        -0.161605     -0.010763     -0.486444
Pb       3.78337     11.72489     12.60676        -0.269577      0.102266     -0.566103
Pb      15.36140     11.76137     12.46657         0.574302     -0.312893     -0.223769
Pb       7.87532      4.07112      4.12909        -0.332720     -0.110667      0.103016
Pb       7.74208      3.72379      0.12757        -0.113964     -0.019053     -0.671656
Pb       7.89075      0.05341      4.17697        -0.712085     -0.320212     -0.000207
Pb       7.81075     15.42247     16.56255        -0.090532     -0.084398     -0.547857
Pb       7.87980      3.95624      8.06612        -0.136535     -0.166636      1.691294
Pb       7.70558     15.59257      8.36580         0.252422     -0.183385     -0.583080
Pb       7.79394      4.10084     12.52081         0.167140     -0.403850     -0.455617
Pb       7.78982      0.06720     12.40819        -0.049071     -0.332911      0.566766
Pb       7.76631      7.76466      4.14180         0.180440      0.057480     -0.573555
Pb       7.87971      7.63698      0.05740        -0.765571      0.148759     -0.100438
Pb       7.68323      7.77182      8.39072         0.456709      0.037217     -0.138896
Pb       7.67196      7.98269     12.59041         0.509112     -0.293734     -0.817548
Pb       7.75749     11.63528      4.15338         0.208445      0.329879     -0.260604
Pb       7.91349     11.52775      0.06234        -0.459106      0.832684     -0.221374
Pb       7.76657     11.57509      8.46426         0.288363      0.200501     -0.516510
Pb       7.70733     11.79290     12.53982         0.322827     -0.165404     -0.594783
Pb      11.55683      3.98115      3.93039         0.203122      0.090287      1.205481
Pb      11.61972      3.66643     16.44837         0.323210      0.402898     -0.037297
Pb      11.96672      0.15212      4.17622        -0.415429     -0.053422      0.196891
Pb      11.78670     15.58509      0.03618        -0.184913     -0.069716     -0.946961
Pb      11.70227      3.62289      8.07619        -0.142129      1.168062      0.513995
Pb      11.80590     15.41456      8.29392        -0.586748      0.166424      0.167050
Pb      11.53088      3.96030     12.35478         0.031951     -0.658154      0.386292
Pb      11.80182      0.05792     12.57691        -0.460962     -0.140628     -0.196150
Pb      11.65779      8.04389      4.15970         0.201493     -0.749270      0.086723
Pb      11.72091      7.73984     16.55722         0.043906     -0.082800      0.097699
Pb      11.71384      7.74022      8.25363         0.065331     -0.205235     -0.530845
Pb      11.90667      7.53163     12.39200        -0.389656      1.312657      0.754981
Pb      11.55429     12.07260      4.09578         0.062146     -1.046328      0.480695
Pb      11.66245     11.74397      0.05640        -0.094107     -0.157812     -0.590916
Pb      11.52981     11.48535      8.11572         0.569177      0.887325      0.840795
Pb      11.65303     11.53032     12.52920        -0.094345      0.438891     -0.402130
Ti       1.90834      1.98710      2.21712        -0.522471     -0.923426     -1.191952
Ti       1.83550      2.03797     14.52394         0.739042     -1.180911      0.029659
Ti       1.88182     13.75659      2.19044         0.091541     -1.083653     -0.612901
Ti       1.85733     13.73786     14.67770         0.115181      0.111043     -1.291014
Ti      13.67359      2.00998      2.23872         0.106476     -0.192099     -0.272240
Ti      13.75313      1.85932     14.62163        -1.273026     -0.220017     -1.432018
Ti      13.61759     13.66695      2.17941         1.328045      0.324976     -0.192231
Ti      13.63349     13.47044     14.67586        -0.439776      1.029040     -0.075228
Ti       2.06216      1.84572      6.34377        -1.105359      0.460290      0.571127
Ti       1.93110     13.55310      6.46521        -0.277621      0.225781      0.061066
Ti      13.68070      1.87170      6.38390         0.283288      0.485585      0.235734
Ti      13.60882     13.53866      6.37276         0.766604      0.674866      0.014911
Ti       1.87660      1.83203     10.48497         0.443544      1.383022      0.545712
Ti       1.96411     13.57795     10.49946        -0.522351     -0.449321      0.622007
Ti      13.57917      1.96709     10.45505        -0.235219     -0.339996      1.249489
Ti      13.46771     13.67711     10.41602         0.161871     -1.437793     -0.056710
Ti       1.81350      5.86578      2.20465         0.848827      1.255863     -0.273264
Ti       1.91692      5.91509     14.61187        -0.136463     -0.911547     -1.184257
Ti      13.53875      5.80066      2.26288         0.113837      1.298372      0.606407
Ti      13.64559      5.67639     14.66282        -0.153963      0.949216      0.398734
Ti       2.05621      5.71696      6.35571        -1.441398      0.376275     -0.287359
Ti      13.65371      5.84410      6.25485        -0.665451     -0.449286      0.938065
Ti       1.90017      5.87153     10.40863         0.451461     -0.715542      0.945170
Ti      13.69756      5.77937     10.35655        -0.155338      1.092406      0.394241
Ti       1.93636      9.79144      2.27323        -0.966726     -0.096742     -0.172273
Ti       1.90767      9.78329     14.68723        -0.749015     -0.153945      0.321459
Ti      13.52469      9.84061      2.25598         1.863295     -0.868384      0.979714
Ti      13.61024      9.59290     14.77695         0.552435      0.631344     -0.979905
Ti       2.03320      9.68103      6.28237        -0.818443      0.787988      0.606184
Ti      13.68569      9.70597      6.28249        -0.534993      0.194988     -0.615802
Ti       1.92290      9.79014     10.40077        -0.245923     -0.056258      1.151257
Ti      13.63823      9.75754     10.45412         0.401649     -0.029743     -0.686406
Ti       5.75709      1.96629      2.23855        -0.222719     -0.511961     -0.601237
Ti       5.81927      1.91377     14.71035         0.158171     -0.406407     -0.138690
Ti       5.77942     13.67061      2.31546        -0.175911     -0.366609      0.150359
Ti       5.69347     13.59923     14.68147         1.020958      0.763834     -0.984493
Ti       5.83150      1.95721      6.25599         0.416373     -0.910523      1.160805
Ti       5.78099     13.62932      6.35186         0.488443     -0.208387      0.965268
Ti       5.98226      2.04334     10.34224        -0.810296      0.191723      0.800387
Ti       5.83480     13.67475     10.48634        -0.179059     -0.393569      1.359508
Ti       5.69843      5.83019      2.09238         0.016711      0.830573      0.229652
Ti       5.82851      5.75277     14.73290        -0.564576      0.586540      1.103431
Ti       5.85189      5.78630      6.29523         0.492428      1.260978     -0.709496
Ti       5.75490      6.03623     10.46763         1.495532     -1.367391     -0.023009
Ti       5.80530      9.81824      2.22441        -0.285982     -0.475483     -0.758583
Ti       5.83241      9.79851     14.66738        -0.360935     -1.269986      0.215867
Ti       5.93162      9.70013      6.38285         0.011121      0.075362      0.981352
Ti       5.79612      9.81097     10.62841         0.459254      0.249177     -0.529144
Ti       9.62992      1.91831      2.20032         0.660722     -0.138706      0.596361
Ti       9.68849      1.85429     14.57564         0.382976     -0.279952     -0.011319
Ti       9.67169     13.72762      2.24152        -0.836421     -0.969660     -0.466557
Ti       9.75289     13.55815     14.65356        -0.401686      0.572524     -0.148489
Ti       9.69999      1.89391      6.35926         0.244816      0.286284      0.045269
Ti       9.65284     13.75385      6.38940        -0.097722     -1.534035      0.035801
Ti       9.70156      1.89121     10.51246         0.975613      0.167828     -0.751240
Ti       9.65492     13.62958     10.50723         0.723658     -0.980674     -0.248965
Ti       9.65776      5.83054      2.04700         0.242858      1.296440      1.459188
Ti       9.66702      5.84392     14.66739         1.454627     -0.387423     -0.206130
Ti       9.72014      5.93869      6.36828         1.156580     -0.253291     -0.173146
Ti       9.70217      5.88340     10.46679        -1.138231      0.350122     -0.629374
Ti       9.71281      9.76675      2.06450        -0.125775     -0.284823      2.218696
Ti       9.69042      9.67215     14.58002         0.802168      0.956924      0.322653
Ti       9.73515      9.69557      6.36024        -0.411254      0.350110     -0.569144
Ti       9.89539      9.71793     10.48037        -1.351888     -0.060247      0.750682
O       1.72354      1.98387      0.36302         0.702275      0.012445      0.666679
O       1.87838      1.96588     12.72853        -0.091598      0.014478     -0.321310
O       1.69975     13.93429      0.34465         0.386366     -0.408711      0.520823
O       2.01582     13.47425     12.81782        -0.360199      0.526778      0.862399
O      13.62141      2.12627      0.44149         0.086871     -0.353037     -0.119754
O      13.63536      1.80542     12.72905         0.507504      0.224135      1.027746
O      13.66806     13.79117      0.34606        -0.148484      0.003683      0.952101
O      13.44213     13.48928     12.84922         0.473552      0.361507      0.362594
O       1.97271      2.10494      4.57382        -0.061887     -0.366143     -0.096411
O       1.98047     13.59411      4.70558        -0.064744      0.015197     -1.192004
O      13.78354      1.77876      4.61063        -0.369446      0.114456     -0.394124
O      13.64495     13.87757      4.56141        -0.682201     -0.626334      0.167605
O       2.02502      1.80260      8.72368        -0.073660      0.118087     -0.867719
O       1.93860     13.53406      8.71553        -0.142446      0.318918     -0.550710
O      13.51520      1.95012      8.71449        -0.134089     -0.085422     -1.080913
O      13.63052     13.57766      8.60513        -0.076553      0.029867      0.821724
O       1.80206      5.98541      0.39483         0.307591     -0.910587      0.472604
O       1.81121      5.93100     12.73242         0.173815      0.051030      1.400625
O      13.60416      5.61960      0.52710        -0.046421      0.241732     -1.092858
O      13.75140      5.94229     12.89963        -0.160843     -0.654967     -0.039002
O       1.93785      5.72388      4.58435         0.251996     -0.150946     -0.589698
O      13.47113      5.83279      4.52133         0.642697     -0.134880     -0.297293
O       2.15342      5.81665      8.62308        -0.281498      0.065270      0.021490
O      13.51196      5.90066      8.61907         0.136785     -0.255665      0.665447
O       1.85421      9.57404      0.47812         0.417114      0.264357     -0.028836
O       1.80260      9.79913     12.92988         0.467819     -0.314018     -0.663720
O      13.59827      9.62262      0.53764         0.012617      0.295032     -1.728234
O      13.79413      9.75773     12.98493        -0.553125     -0.289620      0.398617
O       2.00611      9.88456      4.54788        -0.366566     -0.113519     -0.216408
O      13.57735      9.79067      4.47249        -0.096379     -0.222635      0.781927
O       2.00914      9.89475      8.60644        -0.107622     -0.692345      0.001841
O      13.54757      9.82459      8.64545         0.336677     -0.451518      0.731595
O       5.76493      1.89707      0.36678        -0.027407      0.089173      1.171299
O       6.08745      1.96018     12.96983        -0.928436     -0.080564     -0.737380
O       5.60495     13.62025      0.56847         0.293485      0.116002     -1.396270
O       5.66519     13.62980     12.86781         0.034417     -0.210912      0.543171
O       5.75860      1.90360      4.51192         0.089193      0.367131     -0.866345
O       5.63774     13.72530      4.59454         0.079510     -0.376535     -0.789048
O       5.90676      1.90635      8.57791        -0.270697     -0.172717      0.454077
O       5.94133     13.55894      8.74766         0.016636      0.544222     -0.979659
O       5.74768      5.86282      0.31725        -0.290490      0.049098     -0.634281
O       6.14693      5.74876     12.99495        -0.689560      0.436340     -0.520611
O       5.86300      5.82429      4.47036         0.113126      0.106570      0.575442
O       5.66379      6.05859      8.64560        -0.032264     -0.236573      0.503502
O       5.68795      9.98889      0.39905         0.041213     -0.719063      0.591550
O       5.73306      9.78108     12.85271         0.312994      0.135510      0.636894
O       5.99852      9.76532      4.63642        -0.375740     -0.131395     -1.378169
O       5.81095      9.67693      8.74907        -0.465100     -0.042426      0.665017
O       9.70425      2.04123      0.45765         0.019917     -0.298179     -0.412890
O       9.77815      1.82037     12.77334        -0.292569     -0.134125      0.410556
O       9.57601     13.46572      0.46291         0.379621      0.575396      0.464605
O       9.88882     13.62390     12.88559        -0.428893     -0.296054     -0.092596
O       9.61890      1.75223      4.58854         0.254263      0.272054     -0.536398
O       9.81430     13.76648      4.54114        -0.262121      0.003908      0.629129
O       9.71492      2.04695      8.67523         0.266201     -0.240776      1.098259
O       9.51442     13.42958      8.71266        -0.000834      0.647912      0.171517
O       9.78662      5.93144      0.32782        -0.034645     -0.622531     -0.635926
O       9.61742      5.85061     12.88177        -0.225108     -0.028042      0.040169
O       9.47067      5.91770      4.57225         0.152979     -0.053057     -0.651786
O       9.74444      5.77829      8.64504         0.295978      0.361674      0.734590
O       9.77653      9.84200      0.33830        -0.429394     -0.043627     -0.875985
O       9.70072      9.79508     12.81974        -0.048345     -0.308379      0.264107
O       9.64325      9.53220      4.55267        -0.233649      0.507794      0.111112
O       9.81464      9.80070      8.65953        -0.182694     -0.403146      0.559893
O       3.78804      1.93449      2.43698         1.416129     -0.231600      0.045270
O       3.80383      1.92263     14.81952         0.139376     -0.190506      0.489464
O       3.74744     13.64678      2.51118         0.004706      0.622375      0.406951
O       3.73859     13.72968     14.97216         0.168995     -0.085037      0.412784
O       0.00279      2.08809      2.59176        -0.374382      0.098946     -0.233450
O      15.55362      2.26947     14.80298        -0.282176     -0.799494      0.197919
O      15.54081     13.71512      2.67089        -0.260151     -0.061556     -0.421332
O      15.48893     13.60615     14.86839         0.557450     -0.246145      0.055806
O       3.89404      2.09547      6.57169         0.542852     -0.594217      0.264841
O       3.89786     13.72901      6.73315        -0.045364     -0.460904      0.279556
O      15.54971      1.83385      6.73164         0.798063      0.174579      0.213617
O      15.53933     13.77015      6.63402         0.243560     -0.433466      0.307871
O       3.94481      1.90663     10.75848         0.328939     -0.093137      0.013932
O       3.90529     13.76539     10.67098         0.062707      0.326991      0.131093
O      15.54038      1.89155     10.61844         0.375274      0.140159      0.413769
O      15.57583     13.51196     10.77258        -0.260510      0.173299      0.005792
O       3.75186      6.21000      2.41105         0.727119     -1.086007      0.183974
O       3.90063      5.85308     14.75769         0.101161      0.081026      0.254891
O      15.53816      5.74973      2.68846         0.397816     -0.043462     -0.716825
O      15.54222      5.78242     15.03231        -0.153677     -0.286213     -0.371100
O       3.94106      5.74199      6.41505         0.082900     -0.124391      0.702228
O      15.60517      5.83781      6.68628         0.042761     -0.097970     -0.103633
O       3.88084      5.88343     10.87992         0.226813      0.122161      0.026098
O       0.00569      5.84766     10.66430        -0.588899     -0.370957     -0.333849
O       3.83055      9.85704      2.65800         0.563249     -0.694346     -0.372206
O       3.75759      9.52718     14.98063         1.185054      0.818708     -0.085178
O      15.48465      9.79408      2.70595         0.624479      0.450664     -0.303176
O       0.00420      9.69401     15.05559        -0.976495     -0.141932      0.471380
O       3.88230      9.66399      6.64719         0.125672      0.599057     -0.115255
O      15.60681      9.68746      6.66736         0.226776      0.235354     -0.637561
O       3.84096      9.78781     10.86676         0.128187     -0.695130     -0.232200
O       0.00116      9.87767     10.68379        -0.333598     -0.160565     -0.101262
O       7.75300      2.05900      2.59638        -1.057184     -0.026585     -0.518201
O       7.79004      1.82951     14.99498         0.019336      0.119658      0.430694
O       7.68948     13.57703      2.59904         0.629706      0.111996      0.072908
O       7.69085     13.61117     14.91539         0.012189     -0.458201      0.148464
O       7.82786      2.02182      6.64897        -1.358781     -0.882786     -0.323628
O       7.74205     13.69649      6.53918         0.520077     -0.145141      0.075713
O       7.86841      1.93643     10.75506        -1.097828      0.092703     -0.094533
O       7.73782     13.61011     10.93749         0.247222     -0.368426      0.016976
O       7.61345      5.88031      2.23395         1.146924     -0.614273      0.537762
O       7.92300      5.61486     15.21530        -1.972010      0.385011     -0.343123
O       7.82104      5.99196      6.68741        -1.751248     -0.358530      0.056095
O       7.75387      5.95468     10.64921        -0.496592     -0.219828      0.350344
O       7.69759     10.06223      2.35965         0.610542     -0.785096     -0.024629
O       7.74771      9.89561     14.92858        -0.042874     -0.054368     -0.225515
O       7.75964      9.58799      6.78484         0.520788      0.244522     -0.197725
O       7.71141      9.79224     10.87477         0.226717     -0.058371     -0.108851
O      11.66902      1.98317      2.59343        -0.744455      0.017333     -0.403177
O      11.68803      1.73438     14.90927        -0.085143      0.335446      0.415012
O      11.61862     13.74665      2.48892         0.393450      0.334064     -0.394021
O      11.67055     13.62243     15.06250         0.480776      0.175497      0.356577
O      11.69170      1.90588      6.51144        -0.687689      0.231744      0.267748
O      11.63917     13.45703      6.77888        -0.163223      1.051083     -0.759226
O      11.67069      1.88124     10.88945        -0.313477      0.378713     -0.558473
O      11.59653     13.66046     10.66428         1.054214      0.173616     -0.152387
O      11.58896      5.89147      2.51495        -0.657279     -0.175100     -0.285021
O      11.60871      5.90775     14.94403         0.781437     -0.323434     -0.127847
O      11.64409      6.00179      6.48744        -0.112185     -0.742756      0.492766
O      11.62628      5.86126     10.95889         0.921175     -0.540249     -1.223426
O      11.62771      9.70368      2.44135        -0.779273      0.039871      0.156947
O      11.63949      9.69257     14.96736         0.474860     -0.167170      0.016441
O      11.71557      9.66295      6.51378        -0.419923      0.155460      0.285715
O      11.73428      9.56673     10.84491         0.122236      0.339568     -0.051233
O       2.12154      3.91177      2.46321        -0.769066      0.884401     -0.229897
O       1.89378      3.89835     14.82257         0.557501      0.926446      0.581381
O       1.83990      0.04684      2.53226        -0.016299      0.120380      0.275221
O       1.61887      0.05185     14.68734         0.192944     -0.400803      0.553944
O      13.55850      3.91669      2.73033         0.101707     -0.554030     -0.298590
O      13.53188      3.81232     14.90919        -0.418812      0.801988     -0.190486
O      13.62835      0.12699      2.41661        -0.090645     -0.731993      0.088845
O      13.72360      0.01195     14.82046        -0.042715     -0.292958      0.497619
O       1.88716      3.86143      6.76167         0.250625     -0.364900     -0.156941
O       1.95359     15.56108      6.53103         0.312649      1.131842      0.617023
O      13.65832      3.88348      6.68301        -0.070935     -0.272208     -0.261673
O      13.48725     15.56309      6.74853         0.331461      0.156769     -0.150159
O       1.94003      3.91160     10.79047         0.028162     -0.122716     -0.312797
O       1.83932     15.54987     10.67638         0.298512      0.086297      0.550450
O      13.64342      3.86347     10.78418        -0.250903      0.816702     -0.212802
O      13.64779     15.55771     10.62727        -0.103826     -0.185100      0.362094
O       1.77715      7.84949      2.56682        -0.190258     -0.677428      0.433149
O       1.83428      7.69699     14.99156         0.111430      0.716716     -0.310074
O      13.71189      7.76062      2.56971        -0.603547     -0.270222     -0.078296
O      13.67210      7.72169     15.13427        -0.440370     -0.006756     -0.408756
O       1.96355      7.69458      6.53195         0.420120      1.020767      0.160214
O      13.62491      7.76044      6.50653         0.418044      0.661163      0.438153
O       1.90612      7.81331     10.67548         0.164729      0.188623      0.145213
O      13.72970      7.74326     10.87007        -0.299330      0.048524     -0.578296
O       1.87048     11.73676      2.26032        -0.459597      0.245982      0.707798
O       1.83051     11.66985     15.06883         0.590266      0.356240     -0.204846
O      13.54359     11.79759      2.31979        -0.252198      0.180888      0.489083
O      13.65691     11.64581     15.14978        -0.465692     -0.321587     -0.394949
O       1.82915     11.66862      6.65256         0.417903     -0.282779      0.070515
O      13.69733     11.65230      6.49465         0.099825      0.291714      0.150809
O       2.08778     11.64448     10.75571        -0.199770      0.812463     -0.088404
O      13.49359     11.65556     10.88352         0.244241     -0.214650     -0.427903
O       5.56093      3.96453      2.31494         0.319660     -0.926043      0.367438
O       5.75408      3.80568     15.00257         0.351684      0.889548      0.298814
O       5.77460     15.58943      2.52496        -0.034963      1.234249      0.047075
O       5.77966     15.49038     15.01794        -0.248579      0.919848      0.297214
O       5.87694      3.88939      6.65649         0.154236      0.450319     -0.305891
O       5.87859     15.57104      6.57649        -0.333243      1.054652      0.439116
O       5.81406      3.97242     10.58808        -0.017726     -0.681585      0.527824
O       6.02615      0.05461     10.88403        -0.923315     -0.009494     -0.938025
O       5.86265      7.88159      2.46346        -0.228588      0.471433      0.046394
O       5.95126      7.87819     14.97525        -0.033658     -0.782570     -0.094561
O       5.71537      7.75472      6.62410         0.160839     -0.314584     -0.115802
O       5.84482      7.82657     11.01768        -0.603053     -0.098268     -0.409197
O       5.67299     11.76092      2.64839         0.312141     -0.538422      0.289520
O       5.59053     11.69907     15.01488         0.212956     -0.178926     -0.585938
O       5.91070     11.60740      6.62206        -0.527012      0.888261      0.219478
O       5.81438     11.70382     10.83003        -0.236932      0.452660     -0.074115
O       9.56577      3.95409      2.48738         0.468892     -0.309414     -0.108533
O       9.77841      3.71817     14.85603         0.048199      0.769605      0.030961
O       9.44674      0.00397      2.34956         0.629001      0.233407      0.013113
O       9.70462     15.46898     15.05491        -0.004044      0.756389      0.182011
O       9.54579      3.89534      6.60298         1.527197      0.114336     -0.901579
O       9.66984     15.57898      6.85593         0.294612      0.038918     -0.485068
O       9.60661      3.97888     10.96474         0.927965     -0.799575     -0.644876
O       9.66251     15.48279     10.76426        -0.124186      1.715409     -0.330807
O       9.48222      7.80768      2.23706         0.198141      0.488563      0.568915
O       9.58318      7.80068     14.92479        -0.060249     -0.142912      0.060197
O       9.74564      7.83001      6.68427        -0.069153     -0.432950      0.407278
O       9.68293      7.82955     10.76370         0.173479     -0.303546     -0.100067
O       9.71262     11.68538      2.59166         0.450215      0.365263     -0.016775
O       9.79839     11.68175     15.01998        -0.226360     -0.459300     -0.261477
O       9.68328     11.64270      6.68665        -0.422730     -0.128139     -0.824410
O       9.82279     11.63134     10.85519        -0.263777      0.013832      0.002082
