  # total energy = -7882.93077799 
CRSYTAL
PRIMVEC
    15.6080000000000005    0.0000000000000000    0.0000000000000000
     0.0000000000000000   15.6080000000000005    0.0000000000000000
     0.0000000000000000    0.0000000000000000   16.6239999999999988
PRESSURE
-1.24321 -1.31796 -1.32433 -0.21856 0.28582 -0.119552
PRIMCOORD
320 1
Pb       3.98631      3.83883      4.11318        -0.347931      0.165571     -0.342538
Pb       4.06977      4.00857      0.11278        -0.696216     -0.375598     -0.283268
Pb       3.91244      0.01043      3.97708        -0.244221     -0.159143      0.150847
Pb       3.81395     15.57011     16.57722         0.212394      0.175996     -0.294609
Pb       0.05559      3.84415      4.14112         0.157397      0.106376     -0.161085
Pb      15.56222      3.78160     16.60369         0.137553      0.336750     -0.112423
Pb      15.55735     15.49003      3.99506         0.441596      0.031975      0.593004
Pb      15.57009     15.57897     16.57891        -0.214655     -0.038764     -0.748819
Pb       3.70677      3.74526      8.28267         0.254962      0.271272      0.023507
Pb       3.84589      0.01834      8.17043         0.102704     -0.515736      0.450544
Pb      15.46624      3.81365      8.28283         0.218934      0.035030      0.131727
Pb      15.59958     15.56083      8.21283        -0.013492     -0.102572      0.370115
Pb       3.77686      3.88538     12.49320         0.549109     -0.262030     -0.575571
Pb       3.84336     15.48494     12.49084         0.101618      0.628308     -0.415507
Pb       0.07742      3.97661     12.52800        -0.800139     -0.183283     -0.207730
Pb       0.05080      0.21360     12.69267        -0.196584     -0.593089     -0.877738
Pb       3.81292      7.89519      4.11964         0.655827     -0.373114      0.040551
Pb       3.86537      7.75685     16.53714         0.268140      0.128971     -0.083240
Pb       0.04410      7.87420      4.20600        -0.495792      0.179466     -0.147387
Pb      15.59211      7.75712     16.54706         0.239679     -0.072613      0.183460
Pb       3.86050      7.70008      8.29103        -0.160588      0.151014     -0.548529
Pb      15.29730      7.71069      8.60131         0.641240      0.350603     -0.173014
Pb       3.94161      7.81203     12.39585        -0.337459     -0.252691     -0.140343
Pb      15.51518      7.89604     12.56638         0.237122     -0.122103     -1.010996
Pb       3.81985     11.71272      4.01530         0.066661     -0.004617      0.401041
Pb       3.83583     11.72111     16.55746        -0.034255     -0.132436     -0.241697
Pb      15.53319     11.65755      4.02146        -0.045421     -0.267777      0.054904
Pb      15.54824     11.77406     16.56271         0.264316      0.033259     -0.207547
Pb       3.82747     11.76135      8.19615         0.166205     -0.383009      0.023568
Pb       0.00048     11.64534      8.24858         0.183564     -0.025019      0.373456
Pb       3.94190     11.62861     12.33227        -0.023324      0.114515     -0.068604
Pb       0.15328     11.65859     12.42666        -0.338241      0.157441     -0.602725
Pb       7.77995      3.67970      4.17450         0.431085      0.667559      0.089125
Pb       7.79121      4.01370     16.59491         0.590854     -0.975560      0.511434
Pb       7.70612     15.49873      4.09564         0.497108      0.109822     -0.100064
Pb       7.82803      0.16166      0.04473        -0.176945     -0.039872     -0.112435
Pb       7.66198      3.87283      8.39546         0.534644      0.136594     -0.669285
Pb       7.87721      0.00904      8.24970        -0.093008     -0.506839     -0.469065
Pb       7.77165      3.70531     12.41556         0.078650      0.611620      0.038713
Pb       7.67543     15.54422     12.48098        -0.162814      0.035632     -0.408396
Pb       7.79290      7.84058      4.18486        -0.134728     -0.100360     -0.320387
Pb       7.64704      7.83486     16.58797         0.165878     -0.004519     -0.002243
Pb       7.83295      7.71924      8.20202        -0.397143      0.076456     -0.045504
Pb       7.73936      7.68664     12.44057         0.094225      0.119073     -0.603666
Pb       7.90031     11.74479      4.23225         0.073668     -0.453531     -0.252147
Pb       7.64360     11.78520     16.56947         0.367982     -0.290395     -0.185408
Pb       7.76049     11.75220      8.22924        -0.063449      0.153027      0.012393
Pb       7.75162     11.58664     12.39199        -0.296976     -0.020781      0.051873
Pb      11.87567      3.79784      4.33595        -0.514764      0.345193     -0.466202
Pb      11.75885      4.06003      0.19860        -0.281108     -0.296217     -0.140757
Pb      11.58985     15.43772      4.13875        -0.110415      0.167493     -0.118436
Pb      11.58664     15.52117     16.60026         0.533425      0.125881      0.216642
Pb      11.73798      4.11334      8.47957        -0.198918     -0.442529     -0.731292
Pb      11.68402      0.17085      8.34068         0.069856     -0.206136     -0.391256
Pb      11.79021      3.83004     12.56371         0.094998      0.158660     -0.688237
Pb      11.61266      0.03664     12.42585         0.392057     -0.041335     -0.539067
Pb      11.77713      7.75337      4.20429        -0.064292     -0.193087     -0.370237
Pb      11.56110      7.82013      0.00973        -0.025606     -0.354630     -0.174531
Pb      11.64268      7.83182      8.34856         0.182198     -0.323335     -0.342772
Pb      11.46747      8.01212     12.63121         0.547230     -0.128389     -0.473137
Pb      11.83965     11.35621      4.21544        -0.273179      0.703961     -0.304427
Pb      11.65589     11.70112     16.52048        -0.007527     -0.066058      0.254423
Pb      11.89368     11.93679      8.53650        -0.255937     -0.384095     -0.441294
Pb      11.56817     11.84108     12.40598         0.249023     -0.461976     -0.095703
Ti       1.94000      1.98577      2.12250         0.316407      0.334352      0.120221
Ti       1.98026      2.01096     14.67759        -0.283909     -0.319912      0.860504
Ti       1.93460     13.65080      2.10413        -0.503784     -0.192523     -0.111815
Ti       1.93433     13.65412     14.60080        -0.248566     -0.822400      1.726304
Ti      13.69728      1.85831      2.22272        -1.255781      0.828958      0.194127
Ti      13.54022      1.91416     14.64409         1.762715      0.174963     -0.127882
Ti      13.61609     13.67207      2.17626        -0.541682     -1.857254      0.173505
Ti      13.60975     13.59841     14.57058         0.746937      0.468637      1.340314
Ti       1.97344      1.80693      6.23506        -0.528278      0.947700     -0.518865
Ti       1.91476     13.58276      6.34234        -0.322064     -0.436728     -0.340886
Ti      13.64883      1.90125      6.34927        -0.164019     -0.214949     -0.057571
Ti      13.64668     13.59713      6.34405         0.082018      0.098090      0.623806
Ti       1.98865      1.91734     10.53973        -0.364445     -0.787119      0.013036
Ti       1.98114     13.70556     10.55414        -1.484656     -0.139545     -0.539679
Ti      13.72446      1.89714     10.61509        -0.079595      0.380040     -0.696767
Ti      13.75904     13.68931     10.56675         0.400691     -0.004088      0.586161
Ti       1.89582      5.90336      2.26444         0.206771     -0.799888     -0.816497
Ti       2.03696      5.76390     14.62534        -0.429299      0.359098      0.409017
Ti      13.59467      5.78393      2.22848         0.139884      0.295275      0.094725
Ti      13.72190      5.83083     14.72068        -0.430721     -0.640558     -1.492428
Ti       2.03247      5.75760      6.35444        -0.686743      0.432579     -0.377737
Ti      13.82362      5.81404      6.36908        -1.500941      0.365553     -0.141458
Ti       1.84432      5.79669     10.50777         0.204843      0.570288     -0.213597
Ti      13.56059      5.81968     10.62838         1.569914      0.040389      0.383083
Ti       1.97054      9.77426      2.14208        -0.575222     -0.242605      0.363714
Ti       1.94122      9.70217     14.71195         0.099259      0.937548     -0.503254
Ti      13.60974      9.66414      2.05626         0.378691      0.392916      0.378581
Ti      13.68978      9.71631     14.65672        -0.567904      0.107438     -0.317122
Ti       1.97264      9.63039      6.30057        -0.620695      0.759905      1.169334
Ti      13.66921      9.71672      6.48872         0.442142     -0.117716      0.494966
Ti       1.98274      9.69249     10.46520        -1.240057     -0.134082      0.059552
Ti      13.67201      9.78818     10.54700         0.445165     -0.101615      0.356712
Ti       5.88021      1.93658      2.17979        -0.346737      0.036786     -0.668084
Ti       5.79208      1.90485     14.73618         0.034422     -0.165601      0.171891
Ti       5.83333     13.56677      2.11882         0.006405      0.455750      0.513706
Ti       5.80594     13.65135     14.56047         0.042493     -0.033480      0.263284
Ti       5.86020      1.88861      6.31279         0.151121      0.000296     -0.622261
Ti       5.82878     13.62180      6.22005         0.311308     -0.304641      0.245766
Ti       5.86395      1.94583     10.48092        -0.810303     -0.708761      0.193278
Ti       5.85141     13.65400     10.48017        -0.142085     -0.236131     -1.056194
Ti       5.81709      5.86693      2.16169         0.422495      0.448014      2.221240
Ti       5.91363      5.75993     14.58651        -0.656633      0.894568     -0.657196
Ti       5.86264      5.70597      6.33444         0.202599      0.928873      0.031531
Ti       5.77517      5.80474     10.42036         0.519583     -0.149638      0.192938
Ti       5.88847      9.76128      2.19591         0.147462     -0.476315      0.202366
Ti       5.83840      9.79073     14.59927        -0.023864     -0.252480      0.090911
Ti       5.85043      9.68703      6.32588        -0.269979      0.203530     -0.242220
Ti       5.79684      9.69575     10.33068         0.932901      0.687126      0.500306
Ti       9.79862      1.90275      2.28295         0.212402      0.067873     -0.648757
Ti       9.76077      1.86966     14.61431        -0.843786      1.294862     -0.393177
Ti       9.73559     13.54328      2.11361         0.207988     -0.505811     -0.049504
Ti       9.71556     13.61558     14.65331        -0.484202     -0.738027     -0.125773
Ti       9.73600      1.94181      6.40618         0.227421      0.273813      0.527122
Ti       9.82962     13.55942      6.31256        -0.372084      0.480823      1.388437
Ti       9.79170      1.97815     10.46541         0.521000      0.088472     -0.033377
Ti       9.71418     13.68363     10.49834         0.017725     -0.064418     -0.240196
Ti       9.67160      5.77903      2.32561         0.711472      0.174218     -0.490241
Ti       9.76914      5.76489     14.66053         0.258814      0.250160     -0.008729
Ti       9.78502      5.81608      6.34478         0.175825     -1.461824     -0.536029
Ti       9.78454      5.84321     10.57812        -0.524353     -0.357492      0.150942
Ti       9.75650      9.71557      2.13620        -0.085302      0.138262      0.216089
Ti       9.71356      9.69190     14.72140        -0.328176      0.561120     -0.669427
Ti       9.78326      9.73313      6.39753         0.223026      0.251500      0.574392
Ti       9.70101      9.76013     10.47154        -0.108346      0.096583      0.764238
O       1.93767      2.03837      0.33738        -0.021389     -0.452766      0.367869
O       2.04304      1.88313     12.91223        -0.088987      0.428911     -0.312905
O       1.95721     13.53548      0.31664        -0.147384      0.749278      0.605933
O       2.07960     13.48629     12.87187        -0.196971      0.191491     -0.696992
O      13.64515      1.82558      0.45382        -0.063672      0.055332     -0.735922
O      13.63200      2.03637     12.82702        -0.079088     -0.385653      0.905547
O      13.65617     13.67016      0.43999         0.154718      0.057149     -0.972740
O      13.51645     13.55365     12.86589        -0.288821     -0.032640     -1.312681
O       2.00861      2.03153      4.42801        -0.410548     -0.630344      1.006999
O       1.94148     13.61680      4.56546        -0.255499     -0.091221     -0.175470
O      13.71035      1.94721      4.57434        -0.257407     -0.134593     -0.345774
O      13.68213     13.49802      4.58137        -0.107702      0.254175     -0.689138
O       2.09280      1.73907      8.71861        -0.198945      0.487325      0.156392
O       1.86478     13.82639      8.75383         0.215214     -0.272497      0.089879
O      13.75574      1.85973      8.78731        -0.027657      0.021745     -0.268681
O      13.78643     13.64009      8.75522        -0.238932      0.105673      0.278848
O       2.03959      5.86641      0.44538        -0.074212      0.388303      0.655936
O       2.13176      5.67762     12.82275        -0.493847      0.230688      0.479335
O      13.66198      5.65742      0.40356        -0.484901      0.436466     -0.214822
O      13.78493      5.72144     12.84972        -0.296872      0.341026      1.164361
O       1.87795      5.81592      4.55492         0.185930     -0.229376      0.018056
O      13.66367      5.81744      4.58627         0.242702     -0.075832     -0.188577
O       1.87414      5.78196      8.71043         0.428970      0.057033     -0.267613
O      13.73382      5.74267      8.79742        -0.086984     -0.043340     -0.767956
O       1.95511      9.63608      0.38638        -0.108844     -0.051908     -0.265774
O       1.81409      9.70419     12.90738         0.491950      0.397236      0.358813
O      13.46878      9.63855      0.27580         0.359135     -0.000272      0.204025
O      13.67295      9.53866     12.80548         0.163714      0.491954      1.118868
O       1.88158      9.77596      4.52747         0.251653     -0.105542     -0.702390
O      13.60808      9.63687      4.70021        -0.228184      0.353990     -0.718533
O       2.13949      9.56996      8.70673        -0.272265      0.263417     -0.140909
O      13.85883      9.83306      8.76324        -0.537866     -0.633512     -0.670759
O       5.86016      1.87475      0.34390         0.126475     -0.073401      0.579374
O       5.93941      1.94568     12.96817         0.138485     -0.086743     -0.778623
O       5.82093     13.60101      0.33254         0.214919      0.168541      0.156260
O       5.73374     13.67595     12.76001         0.122564     -0.185319      0.283583
O       5.87457      2.00068      4.43600        -0.076869     -0.283560      0.940410
O       5.76228     13.61136      4.36791         0.248564      0.052721      1.704922
O       5.76942      2.00233      8.68967         0.093329     -0.191145      0.328119
O       5.96167     13.52291      8.66771        -0.238126      0.570865      0.315000
O       5.80466      5.84753      0.43454        -0.067343      0.126436     -2.085501
O       5.92261      5.89357     12.77049        -0.080954     -0.285995      0.941713
O       5.82835      5.82754      4.56206         0.360405     -0.174533     -0.107173
O       5.94424      5.78591      8.62111        -0.499079     -0.103611      0.842490
O       6.00578      9.73059      0.42304        -0.378729      0.055940     -0.505776
O       5.86245      9.82944     12.81735        -0.272531     -0.361896      0.244388
O       5.86058      9.64409      4.49617         0.108568      0.420465      0.170010
O       5.85319      9.82540      8.56791        -0.301127     -0.161964      0.094400
O       9.71863      1.89356      0.45662         0.359999     -0.393992      0.183311
O       9.69972      1.90378     12.75684         0.250080     -0.342678      1.383709
O       9.61598     13.45543      0.29665         0.391158      0.702823      0.135228
O       9.87357     13.71988     12.85045        -0.085133      0.023498      0.171513
O       9.57027      1.75101      4.64908         0.184544      0.304022     -1.333256
O       9.83195     13.50823      4.57816        -0.064847      0.464592     -1.450574
O       9.72334      1.92871      8.66613         0.050378      0.208940      0.324254
O       9.71616     13.48155      8.74452        -0.252353      0.145724     -0.336773
O      10.00123      5.63373      0.47441        -0.790311      0.230582      0.322472
O       9.68176      5.86777     12.88215         0.136887      0.299924     -0.072316
O       9.61113      5.72605      4.53083         0.399822      0.653267      0.016650
O       9.95210      5.72634      8.80844        -0.560479      0.400007     -0.191703
O       9.80410      9.79912      0.34147         0.115826     -0.414365     -0.402475
O       9.74071      9.74513     12.86214         0.031338     -0.534403      0.261619
O       9.89170      9.54523      4.63985         0.042832      0.228281     -0.639600
O       9.70900      9.87333      8.74133         0.104769     -0.426248     -0.471331
O       3.89977      1.90311      2.42871        -0.194336     -0.087244     -0.026331
O       3.85353      1.92663     15.04931         1.276071     -0.326403     -0.097352
O       3.76697     13.69079      2.49525         1.057416      0.316386     -0.338961
O       3.91159     13.62513     14.95223        -0.358460      0.157355      0.059173
O      15.55009      2.03974      2.44197         0.581900     -0.155454      0.212351
O       0.06904      1.95256     14.91416        -0.413575     -0.171451      0.278386
O      15.58358     13.51203      2.50298         0.377705      0.432519     -0.084860
O      15.55135     13.65411     14.95053         0.479914     -0.370093     -0.074568
O       3.91376      1.78116      6.48645        -0.175891      0.553489      0.397440
O       3.89300     13.61970      6.63753         0.668117     -0.160371     -0.126758
O      15.60137      1.85883      6.59387         0.451985      0.044513      0.029603
O       0.00066     13.55318      6.75357        -0.078908      0.742890     -0.752525
O       3.86090      1.84324     10.92727         1.208336      0.299766     -0.329918
O       3.82325     13.69964     10.67600         1.282135     -0.190378      0.458387
O       0.06798      1.84846     10.93611        -0.298430      0.311912     -0.150545
O      15.56294     13.71685     11.06379         0.643358     -0.318042     -0.400927
O       3.94168      5.91045      2.49774        -1.016705      0.174666      0.177371
O       3.97614      5.84977     14.92610        -0.066498     -0.028315      0.197482
O      15.50338      5.71604      2.42914         1.107508      0.066882      0.406426
O       0.10597      5.62062     14.98950        -0.169276      1.208146     -0.102609
O       3.94810      5.81427      6.60393        -0.583586     -0.258064      0.459578
O       0.05329      5.72653      6.66207         0.333473      0.110151     -0.035640
O       3.89950      5.70295     10.69897         0.407048      0.293033      0.116998
O       0.01301      5.62135     10.86470         0.423116      0.634719     -0.138672
O       3.89353      9.66916      2.36640        -0.059942     -0.251176      0.478696
O       3.89075      9.77950     14.95334        -0.100956     -0.147340     -0.012545
O      15.55291      9.73653      2.45882         0.234683     -0.028010     -0.102572
O      15.58518      9.75879     15.08684        -0.396899     -0.253144     -0.325111
O       3.90414      9.81986      6.52761         0.456458      0.175390      0.165156
O      15.60386      9.65689      6.60968         0.874931      0.306718      0.228813
O       3.88753      9.68454     10.88355         0.189995      0.236868     -0.173644
O       0.06578      9.64326     10.76976         0.218366      0.324561      0.487335
O       7.75240      1.97090      2.52088         0.300072     -0.580323     -0.230816
O       7.86094      1.89841     15.12992         0.213354      0.023686     -0.846129
O       7.80226     13.41156      2.53794        -0.760927      0.530825     -0.406969
O       7.73520     13.47830     14.77116         0.985867      0.661312      0.110636
O       7.75993      1.94720      6.66454        -0.510326     -0.108550      0.273397
O       7.88042     13.75611      6.55559        -1.057831     -0.441513     -0.108338
O       7.84812      2.01532     10.75641        -0.392016     -0.382009     -0.076596
O       7.74328     13.76981     10.81864         0.935321     -0.267127      0.275512
O       7.79005      5.80100      2.39359         0.332445     -0.410377      0.110295
O       7.76145      5.75160     15.12662         0.151815      0.583102     -0.750334
O       7.78736      5.84210      6.71268         0.016076      0.023013     -0.018316
O       7.83424      5.80027     10.77885        -0.057827      0.061309     -0.093975
O       7.87999      9.86410      2.45361        -0.879910     -0.049994      0.519002
O       7.81236      9.77623     14.85943        -0.734427      0.083606      0.415432
O       7.90058      9.61481      6.52843        -0.769508     -0.092202      0.405725
O       7.68670      9.66884     10.70384         0.768114      0.292757      0.336386
O      11.66367      1.72601      2.60779         0.214647     -0.173498      0.031779
O      11.72174      1.88213     14.84373        -0.939424     -0.038489      0.238715
O      11.66561     13.69561      2.37277         0.311142     -0.016417      0.123586
O      11.77678     13.61112     15.04570        -1.529681      0.356164     -0.041183
O      11.60692      2.01799      6.61574         1.694749     -0.413135      0.194081
O      11.72122     13.53611      6.73616         0.250390      0.156357     -0.012001
O      11.80645      1.96637     10.74491        -1.182344     -0.584707      0.465808
O      11.69855     13.53725     10.61736        -0.040388     -0.179624      0.817776
O      11.69378      5.78748      2.63294        -0.072368      0.398115     -0.083935
O      11.71111      5.93323     14.90505         0.176145     -0.370762      0.093900
O      11.72922      5.83204      6.66908         0.415167     -0.175490      0.049611
O      11.78193      5.94138     10.82251        -1.288577     -0.162110      0.478151
O      11.71755      9.66739      2.59600         0.069993     -0.279024     -0.379078
O      11.65467      9.51895     14.85572         0.550991      0.143560      0.077941
O      11.74856      9.69651      6.84708        -0.273808     -0.107601     -0.282700
O      11.75520      9.80337     10.73601        -0.998710     -0.137872      0.242943
O       2.00035      3.89602      2.51413        -0.122403      0.350615     -0.081877
O       2.10500      3.92420     14.99969        -0.098932     -0.360530     -0.339224
O       1.79852      0.02717      2.40431         0.193967     -0.361711     -0.103601
O       1.95378     15.53470     14.98229         0.020358      0.434508     -0.097009
O      13.38334      3.80438      2.51410         0.751374     -0.068204     -0.166219
O      13.79260      3.87016     14.96101        -1.040384     -0.536327      0.138021
O      13.73028     15.51945      2.48518         0.075084      0.629387      0.429668
O      13.75389     15.57685     14.84991        -0.494328      0.576681      0.307032
O       2.03615      3.80020      6.64444        -0.119710     -0.007951     -0.081045
O       1.97048     15.54989      6.58934        -0.208441      0.123575     -0.140258
O      13.70626      3.84113      6.63202        -0.048385      0.128951      0.233723
O      13.53699     15.54694      6.58432         0.360588      0.323216      0.204228
O       1.93669      3.79237     10.80111         0.513210      0.199609      0.022471
O       1.89064     15.54698     11.05033         0.351531      0.426750     -0.261334
O      13.64300      3.85433     10.83720        -0.015645      0.064228      0.109219
O      13.66425     15.57466     10.98239        -0.343184      0.018793     -0.181202
O       1.82386      7.82430      2.62087         0.376941     -0.612527     -0.402062
O       1.93833      7.83333     14.86109        -0.020228     -1.448951      0.569905
O      13.62947      7.76374      2.41433         0.038910     -0.389655      0.214460
O      13.76890      7.73281     14.91339         0.348660     -0.156639      0.314403
O       2.15130      7.77497      6.49187        -0.305964     -0.739795      0.205397
O      13.77703      7.76379      6.71600        -0.545421     -0.638600      0.428381
O       1.85896      7.71838     10.87278         0.818826     -0.323376     -0.075829
O      13.84564      7.77314     10.66902        -0.149714     -0.384672      0.250788
O       2.05678     11.69364      2.38190        -0.559905     -0.332011      0.181832
O       1.85908     11.71109     15.09246         0.312439     -0.388874     -0.519224
O      13.63908     11.60371      2.41734        -0.335004      0.153685      0.372338
O      13.58725     11.63634     14.95427         0.158863     -0.407411     -0.161392
O       1.92369     11.65598      6.69048         0.259157      0.383016      0.067131
O      13.70049     11.68341      6.78044        -0.193648     -0.134051     -0.331723
O       1.90625     11.67923     10.71438         0.254827     -0.186118      0.354448
O      13.87086     11.65095     10.79410        -0.678255      0.568141      0.280156
O       5.77088      3.90497      2.31717         0.023357     -0.502771      0.489635
O       5.88676      3.83335     14.93333        -0.171877      1.027736      0.272841
O       5.82534     15.56331      2.46846         0.313973     -0.095498     -0.170042
O       5.87477     15.58978     14.86860        -0.003854     -0.538456      0.373500
O       5.82301      3.83146      6.59814         0.014210     -0.136396      0.084227
O       5.86207     15.59854      6.59973         0.127858     -0.594084     -0.274894
O       5.91728      3.84127     10.82453        -0.328164      0.148633     -0.232776
O       5.87300     15.57361     10.80512        -0.087340      1.123135      0.094624
O       5.98736      7.82530      2.52567        -0.252474     -0.042189     -0.366717
O       5.82473      7.80489     14.93209         0.414476     -0.159380     -0.028599
O       5.80671      7.86293      6.71375         0.183268     -0.995724     -0.122118
O       5.75687      7.81209     10.71781         0.029398     -0.999462     -0.072469
O       5.61141     11.72502      2.37579         0.459160     -0.587770      0.161740
O       5.78119     11.70580     14.92846         0.065424     -0.280262      0.016198
O       6.02008     11.70100      6.56358        -0.376550      0.606165     -0.357712
O       5.85441     11.73028     10.69735        -0.344768     -0.682982      0.521914
O       9.84702      3.75409      2.52991        -0.355679      0.490082      0.320937
O       9.74689      3.87590     14.80161         0.069008     -0.595738      0.447513
O       9.67754     15.43652      2.47024        -0.452388      0.540771      0.173920
O       9.80086     15.54890     14.95826        -0.260935      0.211933      0.078373
O       9.73641      3.91008      6.63763        -0.322337     -0.318513      0.192137
O       9.81802     15.57440      6.71793         0.031019     -0.177804      0.260142
O       9.99858      3.89174     10.80100        -0.670693      0.002779      0.258636
O       9.86485      0.03045     10.61448        -0.158526     -0.525627      0.622176
O       9.67719      7.78080      2.40413         0.244979     -0.566428      0.175798
O       9.56212      7.73434     15.07792         0.623537      0.145212     -0.318852
O       9.82370      7.64101      6.81448        -0.229855      1.571926      0.014011
O       9.73050      7.80194     10.82717         0.176476      0.476764     -0.111626
O       9.83650     11.61887      2.41690         0.213685      0.412954      0.701298
O       9.81379     11.67517     14.86976         0.288055      0.098574      0.023580
O       9.72526     11.63966      6.47346        -0.143484     -0.137053      0.426333
O       9.58196     11.72999     10.97375         0.655936     -0.477285     -0.672148
