  # total energy = -7882.89162662 
CRSYTAL
PRIMVEC
    15.6080000000000005    0.0000000000000000    0.0000000000000000
     0.0000000000000000   15.6080000000000005    0.0000000000000000
     0.0000000000000000    0.0000000000000000   16.6239999999999988
PRESSURE
0.280964 -0.094766 1.20016 -0.143604 0.334201 -0.045505
PRIMCOORD
320 1
Pb       3.89435      3.79707      4.10014        -0.088970      0.433328      0.052966
Pb       3.95806      3.91924     16.61144        -0.374476      0.068055      0.247519
Pb       3.90718     15.55234      4.02277         0.229471     -0.121853      0.491801
Pb       3.91772     15.57206     16.53411        -0.219784     -0.002518      0.414656
Pb       0.02505      3.90450      4.08166         0.235165      0.067403      0.178908
Pb       0.00414      3.82487     16.60138         0.254138     -0.186747      0.340996
Pb      15.59796     15.49269      4.06192         0.108055      0.320106      0.355029
Pb      15.58964     15.59356     16.54741         0.012924      0.500078      0.204111
Pb       3.87823      3.81709      8.21428         0.073686      0.181936     -0.063896
Pb       3.85581     15.50143      8.14325         0.234582      0.089658      0.471202
Pb      15.50545      3.87243      8.26011         0.484502     -0.205407      0.284921
Pb      15.50288     15.53193      8.24429         0.686329      0.150472      0.522702
Pb       3.79370      3.82670     12.46035         0.408811      0.130421     -0.029466
Pb       3.90518      0.01144     12.55434        -0.349730     -0.374171     -0.917018
Pb       0.04991      4.05004     12.55789        -0.051186     -0.538254     -0.321091
Pb       0.07759      0.04238     12.57626        -0.058089      0.028489     -0.306178
Pb       3.89906      7.82837      3.98474        -0.243425     -0.027599      0.702679
Pb       3.91421      7.78792     16.52310        -0.301107      0.063002      0.697343
Pb      15.46937      7.81538      4.09202         1.287903     -0.188870      1.327417
Pb      15.58178      7.73180     16.52083         0.108921      0.068268      0.373303
Pb       3.75792      7.75899      8.30247         0.774668     -0.467856      0.056716
Pb      15.40678      7.69992      8.46899         0.576486      0.121938     -0.501872
Pb       3.92835      7.74054     12.34891        -0.127732      0.274698      0.515546
Pb      15.51519      7.78271     12.44106         0.640551      0.488232      0.221826
Pb       3.85926     11.71434      4.03733        -0.247438     -0.355809      0.350559
Pb       3.82076     11.74931      0.00482         0.284727     -0.300225      0.373735
Pb      15.53163     11.62436      4.02871         0.523955      0.019852      0.738117
Pb      15.56545     11.66521     16.53376         0.104617      0.154043      0.333264
Pb       3.86622     11.78544      8.34876         0.545639     -0.378888     -0.321401
Pb       0.05331     11.70244      8.24280        -0.336571      0.229485      0.182717
Pb       3.84022     11.63087     12.38368         0.463002      0.379098      0.170145
Pb       0.02252     11.76326     12.49129         0.040027     -0.051120     -0.116523
Pb       7.78559      3.79359      4.11475         0.028578      0.348452      0.349808
Pb       7.81602      3.93542     16.54749        -0.177225     -0.147475      0.214337
Pb       7.77341     15.58749      4.15409         0.109091     -0.254035      0.510484
Pb       7.78133      0.08258     16.56226         0.199758     -0.640824      0.048826
Pb       7.81127      3.79440      8.33514        -0.293210      0.465944     -0.894538
Pb       7.79764      0.03336      8.15684        -0.236927     -0.236532      0.358122
Pb       7.85309      3.76799     12.41807        -0.404988      0.326909      1.059243
Pb       7.72858     15.56987     12.35246        -0.134283     -0.342309      0.350378
Pb       7.88570      7.80725      4.16490        -0.197255     -0.059616     -0.032047
Pb       7.61002      7.66925     16.60356         0.593651      0.614393      0.405488
Pb       7.79315      7.72375      8.18978        -0.285251      0.092118      0.530130
Pb       7.67680      7.82687     12.40817        -0.002846     -0.083730      0.444111
Pb       7.80842     11.70380      4.12428         0.925169     -0.238248      0.634658
Pb       7.72118     11.81270     16.54187         0.420030     -0.766663      0.641028
Pb       7.90289     11.72863      8.32223        -0.803925     -0.391537      0.429914
Pb       7.78527     11.74535     12.40100        -0.309287     -0.301780      0.065597
Pb      11.78683      3.77972      4.16823        -0.310080      0.273437     -0.170654
Pb      11.66866      3.95542      0.13023         0.590798     -0.612228      0.251885
Pb      11.64627     15.46739      4.07109         0.684908      0.659576      1.308358
Pb      11.65792     15.59012     16.50741         0.376867     -0.575526      0.815665
Pb      11.71661      3.99504      8.37725        -0.346673     -0.585360      0.189668
Pb      11.77105      0.10618      8.34629        -0.267120     -0.301775      0.213824
Pb      11.71702      3.87694     12.38427        -0.201486     -0.018507      0.488987
Pb      11.48799      0.08550     12.40211         0.495305      0.172956      0.264048
Pb      11.74558      7.94749      4.24503        -0.175332     -0.706313     -0.064989
Pb      11.70696      7.79514     16.58432        -0.336745     -0.133771      0.633054
Pb      11.70667      7.70667      8.37437        -0.341178      0.326848      0.040122
Pb      11.60997      7.96442     12.47349        -0.111321     -0.710224      0.729166
Pb      11.87858     11.58008      4.13018        -0.493707      0.188331      0.119724
Pb      11.54539     11.61970     16.54473        -0.030037      0.819216      0.433087
Pb      11.70122     11.82394      8.48254         0.414203     -0.022338     -0.440281
Pb      11.62868     11.69576     12.45035        -0.341950      0.173347      0.396088
Ti       1.99032      1.91607      2.28726        -0.333826      0.502143     -1.416815
Ti       2.05837      1.94861     14.69975        -2.357344      0.533864     -0.665356
Ti       1.87411     13.64692      2.20014         1.127032     -0.425248      0.331095
Ti       1.91004     13.64195     14.67099         0.091061      0.517494     -1.278966
Ti      13.72116      1.86845      2.30116        -0.197662      0.978651     -1.119512
Ti      13.70459      1.94235     14.65272         0.269931     -0.173475      1.304978
Ti      13.64244     13.63429      2.14597        -0.168005     -0.256860     -0.802200
Ti      13.63510     13.61897     14.67835        -0.122287      0.347887     -0.392591
Ti       1.90313      1.88204      6.36128         0.151836      0.342873      0.238260
Ti       1.94767     13.53659      6.23624        -0.035304      0.135086      0.305916
Ti      13.63890      1.92212      6.42112        -0.067042      0.323755      0.458639
Ti      13.59723     13.63343      6.39372        -0.025188     -0.345956      0.246203
Ti       1.91141      1.91031     10.56155         0.627274     -0.347343      0.867223
Ti       1.90746     13.64402     10.48414         0.353138      0.773632      0.830218
Ti      13.69773      1.98761     10.57515         0.186868      0.057328     -0.790203
Ti      13.58170     13.74502     10.67952         0.673888      0.218384     -1.226228
Ti       1.93456      5.85941      2.21160        -0.049256     -0.591582      0.487814
Ti       1.88430      5.94067     14.65883         0.743099     -0.963327      0.042056
Ti      13.66321      5.85022      2.28116        -0.355076     -0.949730      0.385720
Ti      13.59397      5.74822     14.69994         0.199861      0.356090      1.054286
Ti       1.79207      5.79772      6.38343         1.056999     -0.375898      0.026719
Ti      13.53669      5.81912      6.38427         0.735001      0.169365     -0.418002
Ti       1.92590      5.81774     10.55244        -0.045561      0.621461     -0.482959
Ti      13.57570      5.98867     10.68011        -0.315300     -1.642131      0.920698
Ti       1.91373      9.70443      2.21390         0.798037      0.428608     -0.770151
Ti       1.92961      9.79089     14.68016         0.273245     -0.035398      0.474676
Ti      13.68095      9.65812      2.15553         0.334639      0.738361      0.949175
Ti      13.58972      9.72566     14.77098         0.532424      0.093977     -0.151193
Ti       1.99734      9.63823      6.49893        -0.305569      0.180291     -1.542813
Ti      13.70304      9.75412      6.47051        -0.633707     -0.083371     -0.647948
Ti       1.93485      9.78096     10.49603        -0.313288     -0.641197      0.754363
Ti      13.62346      9.86234     10.63113         0.597697     -0.087590     -1.193404
Ti       5.93763      1.90411      2.18052        -1.306357      0.212872      0.302737
Ti       5.94743      1.87152     14.63920        -0.159668      0.808870      0.503288
Ti       5.93012     13.60466      2.26990        -0.540133     -0.262442     -0.214575
Ti       5.81731     13.53257     14.67066         0.216872      0.478813      0.800279
Ti       5.80285      1.84442      6.32329         0.906904      0.682572      0.769695
Ti       5.87424     13.45742      6.34939         0.105903      1.155198      1.285261
Ti       5.79895      1.90172     10.52192        -0.547615     -0.286067     -0.615070
Ti       5.79541     13.64955     10.52116         0.294124     -0.810125     -1.249083
Ti       5.85070      5.84465      2.26779        -0.257201     -0.431633      0.460790
Ti       5.81107      5.80586     14.72757        -0.445497     -0.562345     -0.633672
Ti       5.75066      5.81028      6.26519         0.335082     -0.681955      0.471099
Ti       5.79741      5.68733     10.57944         0.089321      0.648243      1.165545
Ti       5.96365      9.75454      2.23869        -0.557740      0.069863     -0.823757
Ti       5.77014      9.70434     14.66689         0.966649      0.312529      0.390455
Ti       5.90144      9.65673      6.35762         0.038963      0.070122      1.771929
Ti       5.85061      9.70921     10.57252         0.508549      0.328263     -1.777151
Ti       9.77039      1.90094      2.23819         1.199759      0.679095     -0.000089
Ti       9.88001      1.93888     14.82267        -0.671758      0.509908     -0.438764
Ti       9.81861     13.60092      2.29716        -0.230047     -0.578801     -1.506870
Ti       9.71513     13.69007     14.63021        -0.187858     -1.038112      0.238806
Ti       9.81606      1.98926      6.42158        -0.537697      0.218660     -0.450799
Ti       9.75438     13.65722      6.42483         0.051576      0.255033     -0.672929
Ti       9.70084      1.96788     10.56890         0.548339     -0.579113     -0.892253
Ti       9.76266     13.59858     10.51034        -1.951967      0.619604      0.000410
Ti       9.75221      5.83026      2.25015         0.496543     -0.191860      0.863828
Ti       9.80839      5.85480     14.79490        -0.824820     -0.820051     -0.357817
Ti       9.69928      5.87297      6.31380        -0.084078     -1.229313      0.588424
Ti       9.64054      5.86330     10.74738         0.127811     -0.121910     -0.964441
Ti       9.85733      9.66002      2.14174        -1.384632      0.508844     -1.030630
Ti       9.65064      9.68727     14.69324        -0.210547      0.556238      0.324412
Ti       9.88196      9.75850      6.47817        -0.894670      0.423655     -0.180319
Ti       9.76107      9.72550     10.51795        -1.526014     -0.332345     -0.426995
O       1.88392      2.01729      0.47963         0.322034     -0.547841     -0.170991
O       1.95074      1.86682     12.86230         0.207145      0.148479      0.690752
O       1.97809     13.71972      0.44885        -0.029481     -0.301199     -1.096700
O       1.84752     13.76314     12.83624         0.054155     -0.495466      0.991896
O      13.95285      2.05539      0.52239        -1.001970     -0.751413      0.755767
O      13.73185      1.88906     12.93376        -0.179244      0.331471     -1.458750
O      13.65264     13.65114      0.34114         0.021130     -0.048650      0.784019
O      13.75848     13.63113     12.84615        -0.434021     -0.050857      0.707548
O       1.98307      1.79112      4.60604        -0.102856      0.353621     -0.674937
O       1.89479     13.47157      4.43268        -0.040019      0.714213      1.052561
O      13.57493      1.84988      4.67278         0.353421      0.273962     -0.540389
O      13.61016     13.59483      4.61747         0.214873      0.040509      0.325274
O       1.89055      1.93392      8.86422         0.283589      0.238272     -2.132368
O       2.12737     13.55163      8.71720        -0.361373      0.094913      0.105190
O      13.57854      2.00287      8.74726         0.409059     -0.402090      0.987331
O      13.43287     13.61194      8.85638         0.373150      0.388877      0.351093
O       1.81573      5.73330      0.47213         0.126888      0.725083     -1.236769
O       1.84739      6.04523     12.88118         0.294756     -0.227722      0.292438
O      13.68975      5.77648      0.53815         0.289551      0.243329     -0.781605
O      13.54664      5.83142     12.94342         0.093474      0.053695     -0.328322
O       2.06160      5.78210      4.63372        -0.500819      0.165317      0.216531
O      13.55939      5.94068      4.62206         0.002275     -0.247005      0.280147
O       1.81813      5.66620      8.78835         0.191406      0.377047     -0.165448
O      13.51010      5.99340      8.95474         0.547188     -0.291394     -1.453555
O       2.00296      9.80710      0.41792        -0.348913     -0.176952      0.624224
O       1.98115      9.80946     12.93020        -0.109195     -0.196748     -0.641499
O      13.76857      9.70040      0.42397        -0.086327     -0.123927     -0.835820
O      13.79002      9.77839     13.02034        -0.760119     -0.166875     -0.814477
O       1.97586      9.61117      4.70256        -0.057277      0.171894      0.449277
O      13.60933      9.73276      4.60573        -0.098073      0.131271      0.868171
O       1.76950      9.87066      8.75424         0.529048     -0.049058     -0.663983
O      13.59742      9.67496      8.83115         0.160373      0.442849      0.636028
O       5.86979      1.89790      0.42162         0.029383     -0.212730     -0.062395
O       5.78669      1.79862     12.87452         0.110003      0.196856      0.515961
O       5.90325     13.41479      0.50864        -0.342034      0.573308     -0.177298
O       5.90594     13.60517     12.95010        -0.093983      0.183618     -0.731407
O       5.89987      1.81015      4.57555        -0.240512      0.350042     -1.281119
O       6.01127     13.60336      4.62316         0.058586     -0.091295     -1.235439
O       5.88568      1.93341      8.73658        -0.049495      0.044762     -0.089515
O       5.88344     13.62264      8.66304        -0.658999     -0.143259      1.186865
O       5.81003      5.73794      0.47634         0.329198      0.354623      0.045504
O       5.66107      5.82715     12.98909         0.386229     -0.052863     -0.371819
O       5.80348      5.85789      4.48590        -0.263241     -0.112337     -0.310420
O       5.82662      5.72237      8.88437         0.073457     -0.073850     -1.586937
O       5.89747      9.83680      0.43467         0.082924     -0.269166      1.267151
O       5.76516      9.59234     12.90384         0.210579      0.389904     -0.273649
O       5.89594      9.55924      4.63497         0.056201      0.382680     -1.193077
O       5.88527      9.66814      8.77077        -0.077865      0.081946      0.915567
O       9.86941      1.76568      0.43550        -0.471954      0.253169      0.673252
O       9.81118      2.00128     13.07266         0.058681     -0.310110     -1.536526
O       9.93073     13.75282      0.48268        -0.418951      0.028807      0.857527
O       9.63379     13.42441     12.85089         0.329141      0.765467      0.574320
O       9.92805      2.12794      4.63947        -0.555084     -0.406572      0.214431
O       9.76382     13.67525      4.56307         0.038839     -0.545268      0.922126
O       9.83122      1.92958      8.77663        -0.840135      0.047532      0.851607
O       9.64895     13.79084      8.75994         0.520940     -0.282449     -0.255669
O       9.57528      5.99566      0.49368         0.536044     -0.639527     -0.659574
O       9.72650      5.60387     13.05977         0.261055      0.574976     -0.100732
O       9.89629      5.94055      4.58343        -0.481309     -0.526278     -0.225505
O       9.57079      5.93998      8.98326         0.290327     -0.184184     -0.227672
O       9.71948      9.63218      0.31707         0.630034      0.105212      1.479004
O       9.74531      9.78280     12.90154         0.159974      0.090841      0.717256
O       9.88893      9.87595      4.67840         0.013473     -0.447620      0.117095
O       9.76634      9.48341      8.74506         0.055797      0.304528      0.236142
O       3.91379      1.79714      2.53000         0.499808      0.430795      0.055281
O       3.83663      1.94949     14.99203         1.207995     -0.199699      0.093200
O       3.90847     13.50961      2.49093         0.440068      0.211986      0.161744
O       3.92383     13.61265     15.00016        -0.442800      0.521004      0.071053
O       0.06104      1.80732      2.60369        -0.368170      0.041600      0.599047
O       0.01168      1.96613     15.02465         0.257235     -0.086320     -0.298309
O      15.58579     13.63781      2.39686        -0.314739      0.206771      0.436238
O       0.00946     13.62076     14.94366        -0.242776     -0.355297      0.278763
O       3.89981      1.91737      6.65123        -0.340807     -0.059174      0.128065
O       3.90867     13.61019      6.55253        -0.206277      0.207145      0.154087
O      15.58032      2.01075      6.73848        -0.276808     -0.647403     -0.141082
O       0.06083     13.60629      6.70818        -0.686628      0.432822     -0.108947
O       3.93117      1.93686     10.83441        -0.682428      0.079537      0.389956
O       3.90404     13.60798     10.94666        -0.007550     -0.234515     -0.395820
O       0.04243      1.93274     10.79784        -1.038985      0.052345      0.510412
O      15.50532     13.65087     10.65198         0.910864     -0.208684      0.460582
O       3.85858      5.83623      2.47777         0.843177      0.053665      0.094192
O       3.84446      5.78369     15.03908        -0.235660      0.383187      0.218241
O       0.04309      5.90327      2.68336        -0.773398     -0.520514     -0.105757
O      15.54224      5.86002     14.86718         0.104998      0.630088      0.327855
O       3.86131      5.70668      6.79168        -0.202482      0.847812     -0.269124
O      15.48817      5.80076      6.68336         0.186821     -0.116204      0.245070
O       3.87299      5.92419     10.95591        -0.192150     -0.742073     -0.644940
O      15.59088      5.83681     10.98111        -1.096406      0.460948     -0.228265
O       3.91618      9.81171      2.55889         0.100112     -0.384423     -0.181721
O       3.99231      9.69236     15.10553        -1.267139      0.440047     -0.338910
O       0.01660      9.72390      2.62155        -0.501406     -0.182219     -0.533595
O       0.04374      9.69132     15.00822        -0.325690      0.198267      0.145657
O       3.86513      9.59154      6.77701        -0.094953      0.282721      0.012034
O      15.50921      9.83461      6.69520         0.781428     -0.310709      0.305976
O       3.92089      9.77796     10.78549        -1.010814     -0.093518     -0.015727
O      15.60200      9.93833     10.90624        -0.621264     -0.590040     -0.153206
O       7.80896      1.95873      2.50274         0.570422     -0.313194      0.007637
O       7.87607      1.92565     14.96526        -1.370314     -0.164649      0.326310
O       7.88977     13.66763      2.50335        -0.013362     -0.259508      0.196099
O       7.75175     13.65053     15.12404         0.339110      0.463352     -0.616822
O       7.77712      1.97911      6.61634         0.873850      0.199164      0.435220
O       7.83479     13.49580      6.77917        -0.055101      0.270551     -0.698313
O       7.70689      1.91720     10.92464         1.189732     -0.005338     -0.215566
O       7.78780     13.50383     10.88164        -0.270183      0.664584     -0.161779
O       7.82220      5.71080      2.60078        -0.602452      0.606161     -0.059063
O       7.73715      5.82208     15.04280         0.842440     -0.130939      0.055598
O       7.70671      5.71310      6.63652         1.301265      0.625817     -0.052632
O       7.70519      5.77098     11.02764         0.324403      0.016265      0.135269
O       7.88812      9.61062      2.59925        -0.055555      0.738145     -0.152426
O       7.80204      9.72540     15.07206         0.094399     -0.384497     -0.758939
O       7.83182      9.76195      6.73168         0.001462     -0.237909     -0.394971
O       7.86873      9.76240     10.89033        -0.606353     -0.329024      0.069393
O      11.77575      1.99844      2.58564        -0.225912     -0.287168     -0.510526
O      11.75238      1.83505     15.05979         0.553735      0.347361     -0.124088
O      11.76308     13.68191      2.55550        -0.132534     -0.405542     -0.057170
O      11.71476     13.64655     14.90879         0.049843      0.103094     -0.259198
O      11.68816      1.97642      6.86681         0.349808     -0.395127     -0.628338
O      11.65974     13.73542      6.77724         0.485749     -0.297844     -0.350158
O      11.65343      1.94512     10.88219        -0.244668     -0.382079      0.214629
O      11.55808     13.68275     10.89795         1.288758      0.189196      0.364587
O      11.75147      5.80167      2.50849        -0.319587      0.098665     -0.281521
O      11.69686      5.71593     15.27983        -0.145677      0.577245     -0.768941
O      11.69913      5.79894      6.81983        -0.622139      0.486797     -0.096432
O      11.61309      5.80234     10.94503         0.773922      0.374595      0.096818
O      11.78684      9.68352      2.51013        -0.513048     -0.022666     -0.238563
O      11.69952      9.82763     15.05600        -0.098577     -0.445991     -0.481227
O      11.72169      9.76464      6.74917         0.162529     -0.247161      0.089208
O      11.59185      9.70158     10.94215         1.797116      0.111414      0.004199
O       1.92205      3.87794      2.44997         0.083665     -0.585540      1.094649
O       1.86500      3.98262     14.84060         0.298986     -0.580860     -0.036212
O       2.06877     15.56776      2.56670        -0.844007     -0.747272     -0.192704
O       1.85391     15.56761     14.90110         0.647979      0.664098      0.538594
O      13.76594      3.87948      2.64334         0.045183     -0.140083      0.038565
O      13.63272      3.87012     15.10338        -0.131756      0.253572     -0.560488
O      13.64378     15.54732      2.61642         0.282356     -0.023143     -0.530743
O      13.76686      0.01533     15.00124        -0.285239     -0.880145     -0.129507
O       1.87381      3.83236      6.63584         0.096420      0.177137      0.308720
O       1.93758      0.00922      6.77477        -0.260989     -0.905077     -0.481893
O      13.58538      3.87574      6.79228        -0.036961      0.463967     -0.429362
O      13.67912     15.60357      6.80567        -0.164304     -0.418522     -0.371922
O       1.93807      3.98963     10.90990         0.124514     -1.454863      0.648916
O       2.08217     15.55924     10.80231        -0.626975     -0.034985      0.089286
O      13.58987      3.86829     10.86475         0.360292      0.552250      0.254920
O      13.62636      0.06418     10.85956        -0.368384     -0.744712      0.131942
O       1.86457      7.74796      2.52718         0.555025      1.072852     -0.190879
O       2.04639      7.93094     15.05989        -0.473978     -1.799676     -0.135140
O      13.72500      7.79434      2.65564        -0.633167      0.159414     -1.049242
O      13.51923      7.72355     15.15953         0.631867      0.375767     -0.802180
O       1.77375      7.72601      6.87249         0.362314      0.290839     -0.048004
O      13.63329      7.77113      6.83912        -0.150804      0.297403     -0.395576
O       1.90094      7.80329     10.63335        -0.123126      1.066661      0.544558
O      13.62291      7.87652     10.93290         0.084850     -0.053650      0.215716
O       1.87132     11.63884      2.51444         0.039656      0.179129     -0.057931
O       2.02188     11.76144     14.95748        -0.313218     -0.765744      0.182847
O      13.70081     11.64793      2.51738        -0.258554      0.255128     -0.299417
O      13.67559     11.65330     15.06671         0.056872      0.454911     -0.272443
O       1.95114     11.69056      6.66238         0.150771     -0.270672      0.128980
O      13.64232     11.74981      6.74630        -0.398400     -0.293673     -0.019035
O       1.98143     11.74348     10.95192        -0.288279     -0.313286     -0.530502
O      13.43757     11.72834     10.89161         0.277137     -0.407542      0.073325
O       5.75739      3.81074      2.51937         0.322093      0.144021      0.118602
O       5.80996      3.80828     15.12838         0.276181      0.098562     -0.653130
O       5.91142     15.48351      2.56868        -0.117741      0.811107     -0.376784
O       5.78680      0.02043     15.07185         0.266632     -0.471163     -0.181154
O       5.87232      3.89304      6.57653        -0.600439     -0.481269      0.267152
O       5.98925     15.55959      6.57210        -0.515059     -0.203880      0.395479
O       5.80358      3.78507     10.95393        -0.061895      0.779639     -0.142680
O       5.77856     15.50662     10.81551         0.503226      0.673808      0.312765
O       5.89986      7.82069      2.49153        -0.051988     -0.695520     -0.232995
O       5.82541      7.71489     15.03191        -0.024616      0.604656      0.168275
O       5.82929      7.72845      6.67116        -0.009424     -0.095852      0.172118
O       5.89060      7.78653     10.86005        -0.176075     -0.320571      0.188426
O       5.97468     11.67369      2.80787        -0.282333     -0.429542     -1.147563
O       5.82616     11.64710     15.00142         0.207950      0.155686     -0.362912
O       5.76998     11.61471      6.70325         0.128688     -0.208004     -0.392995
O       5.86450     11.68961     10.90560        -0.313730     -0.385873     -0.021680
O       9.78069      3.89642      2.57755         0.016979     -0.424092     -0.458123
O       9.81025      3.81551     15.14518        -0.126605      0.996617      0.558717
O       9.84674      0.07757      2.72298        -0.748721     -0.532268     -0.894482
O       9.72780     15.56608     14.99365         0.149735     -0.246133     -0.127540
O       9.84889      3.92041      6.83049        -0.600303      0.123759     -0.187337
O       9.67064     15.60615      6.62512         0.154387     -0.017622      0.016793
O       9.69710      3.84773     10.96242        -0.116306     -0.183722     -0.337995
O       9.57315     15.59537     10.95871         0.833262      0.352767     -0.206487
O       9.78055      7.76685      2.58557         0.238604      0.469482      0.096012
O       9.95139      7.76021     14.94985        -0.566083      0.217566     -0.393997
O       9.78190      7.70881      6.64736        -0.101059      0.970820      0.138879
O       9.73109      7.72753     11.12884        -0.224443      0.523022     -0.451809
O       9.85765     11.63194      2.37093        -0.070719      0.228718      0.391057
O       9.71541     11.80028     15.09365         0.146077     -0.925173     -0.309306
O       9.82636     11.71939      6.98817         0.113218     -0.353894     -0.940592
O       9.78679     11.64571     10.64706         0.217263      0.150207      0.224725
