  # total energy = -7880.51045599 
CRSYTAL
PRIMVEC
    15.6080000000000005    0.0000000000000000    0.0000000000000000
     0.0000000000000000   15.6080000000000005    0.0000000000000000
     0.0000000000000000    0.0000000000000000   16.6239999999999988
PRESSURE
-0.397699 -0.870481 -1.03728 -0.141024 -0.271864 0.077694
PRIMCOORD
320 1
Pb       4.00590      3.99662      4.16773        -0.200503     -0.480957     -0.501218
Pb       4.07760      4.10376      0.13950        -0.330301     -1.015373      0.024750
Pb       3.87264      0.03404      4.01855         0.045051     -0.448015      0.193695
Pb       3.77089     15.57413     16.62110         0.057564     -0.163600     -0.401961
Pb       0.09433      3.83702      4.15821        -0.268894      0.131358     -0.338549
Pb      15.45455      3.82084      0.00629         1.088303     -0.069038     -0.473515
Pb      15.53838     15.56782      4.00185         0.128729     -0.016078     -0.006428
Pb      15.47444     15.55608     16.57940         0.793111      0.307479     -0.076247
Pb       3.66221      3.79255      8.34955         0.343859      0.190762     -0.094239
Pb       3.88936      0.07529      8.32446         0.305433     -0.145077     -0.658032
Pb      15.55541      3.78480      8.27425        -0.213643      0.595294      0.130746
Pb       0.14878     15.57607      8.19877        -0.625680      0.049878      0.129246
Pb       3.92519      3.95176     12.35921        -0.549004     -0.326912      0.812549
Pb       3.83752     15.39860     12.26852         0.032278      0.738996      0.973856
Pb      15.58583      3.74972     12.42249         0.072125      1.040163      0.665057
Pb      15.53928      0.31070     12.57940         0.280853     -1.043157      0.501058
Pb       3.80389      7.85022      4.34422         0.273488     -0.053351     -0.851839
Pb       3.81036      7.73735      0.01705         0.094522      0.411739     -0.261249
Pb       0.25643      7.90922      4.23977        -1.141021     -0.628209     -0.210702
Pb       0.03240      7.73352      0.03002         0.153430      0.314196     -0.506534
Pb       4.09638      7.68861      8.06926        -0.683822      0.151865      0.965082
Pb      15.41935      7.75786      8.55692        -0.163012      0.135207     -0.273504
Pb       3.91967      7.89384     12.44640        -0.156132     -0.243939     -0.181694
Pb      15.60799      7.97293     12.60594        -0.356845     -0.888412     -0.817530
Pb       3.83666     11.66944      4.08742        -0.061050      0.146517     -0.402427
Pb       3.92869     11.59603     16.43567        -0.308104      0.345331      0.622096
Pb      15.59172     11.65630      4.07469        -0.072795      0.238007     -0.235601
Pb      15.53902     11.82883     16.55657         0.309314     -0.339291      0.060246
Pb       3.82948     11.62460      8.05862        -0.122536      0.078521      0.658094
Pb      15.56040     11.61892      8.34129         0.240113     -0.204597     -0.370288
Pb       4.06370     11.69580     12.30389        -0.693811     -0.415649      0.205848
Pb       0.19668     11.51303     12.29151        -0.058960      0.647210      0.359882
Pb       7.87425      3.74379      4.20518        -0.294409      0.378737     -0.430089
Pb       7.86321      4.00993      0.12520        -0.093510     -0.229772     -0.346943
Pb       7.79422     15.43009      3.98472        -0.039894      0.462384      0.270991
Pb       7.92208      0.17722      0.11501        -0.758513     -0.314590     -0.597533
Pb       7.57022      3.99201      8.33835         0.710826     -0.354231     -0.157729
Pb       7.86676     15.50579      8.35953         0.095175      0.118743     -0.474951
Pb       7.64655      3.79885     12.39941         0.549192     -0.040037      0.279553
Pb       7.65294     15.56394     12.56918         0.467352     -0.030485     -0.745717
Pb       7.69313      7.86805      4.16486         0.517250     -0.440249      0.014126
Pb       7.87019      8.03680     16.59493        -0.549113     -0.883703     -0.054202
Pb       7.80589      7.77069      8.26771        -0.039570     -0.204474     -0.367442
Pb       7.86092      7.55831     12.31940        -0.035609      0.431283      0.063350
Pb       8.00989     11.68064      4.34416        -0.538895     -0.095986     -0.740347
Pb       7.66134     11.66631      0.04218         0.063433      0.340945     -0.554878
Pb       7.59188     11.74148      8.07802         1.082918     -0.102547      0.658520
Pb       7.67147     11.47025     12.40857         0.560974      0.547210     -0.198855
Pb      11.76833      3.95276      4.36464         0.176921     -0.657079     -0.615182
Pb      11.83787      4.09518      0.11749        -0.910000     -0.673508     -0.285361
Pb      11.48303     15.48109      4.16613         0.772630      0.368944     -0.204744
Pb      11.55263     15.52385      0.10931         0.394273     -0.022098     -0.533588
Pb      11.78268      4.09577      8.38968        -0.328855     -0.697053     -0.674722
Pb      11.62739      0.11875      8.24473         0.260695      0.122512     -0.350588
Pb      11.86863      3.81554     12.62141        -0.245817      0.317101     -0.233879
Pb      11.92126     15.52464     12.41392        -0.886054      0.222807      0.212214
Pb      11.72446      7.42376      4.00077        -0.041367      1.504356      0.546790
Pb      11.35198      7.77435      0.02294         0.984547      0.113996     -0.303270
Pb      11.52150      7.97041      8.20302         0.773299     -0.462684      0.399002
Pb      11.52974      7.87184     12.67667         0.326026      0.014925     -0.860142
Pb      11.58108     11.28130      4.27994         0.659199      1.217833     -0.510465
Pb      11.81168     11.79858     16.51179        -0.173547     -0.255853      0.390342
Pb      12.08078     11.96367      8.40345        -1.245902     -0.668888     -0.277640
Pb      11.63326     11.88168     12.40750        -0.093085     -0.354474      0.145853
Ti       1.99269      1.89711      2.19616        -1.370362      0.610426     -1.458600
Ti       2.02616      1.99719     14.67557        -1.471494      0.120189      0.499667
Ti       1.93958     13.62366      2.18502        -0.237665     -0.319876     -0.080187
Ti       2.01971     13.66616     14.46869        -0.790919      0.050139      0.398346
Ti      13.58902      1.96003      2.25128         0.448486      0.015364     -0.020547
Ti      13.59380      1.91976     14.80183         0.311283      0.620647     -0.166441
Ti      13.57187     13.60606      2.33541         0.250635     -0.371706     -1.149154
Ti      13.69710     13.68852     14.58765        -0.310774     -0.830711     -0.254551
Ti       1.97083      1.91001      6.32815        -1.003619     -0.077694     -0.631201
Ti       1.91815     13.52366      6.26797        -0.171126      1.023580     -0.527558
Ti      13.69900      1.89275      6.29483        -1.463530      0.180867      1.408378
Ti      13.74850     13.65581      6.27303        -0.872087      0.218390      0.010568
Ti       1.91623      1.91814     10.59060         0.097483      0.126579     -0.402971
Ti       1.92439     13.66594     10.39999        -0.201258     -1.520508      0.618919
Ti      13.61236      1.99249     10.46907         0.083552     -0.114191     -0.038577
Ti      13.80179     13.67102     10.47391        -1.356614      0.488656      1.275618
Ti       1.97861      5.81446      2.25035        -0.523248     -0.384939     -0.457722
Ti       1.94730      5.82773     14.63499        -0.763350     -0.700774     -0.837202
Ti      13.74184      5.86348      2.11999         0.339346     -0.635759      1.432060
Ti      13.60703      5.88275     14.68377         0.594339     -0.183014     -0.706132
Ti       1.80139      5.81907      6.40919         0.153045     -0.195086     -0.043531
Ti      13.60245      5.90391      6.32364         0.503206     -0.440857      0.311997
Ti       1.84519      5.78235     10.56740        -0.462817      0.874098     -0.114366
Ti      13.61369      5.89506     10.56103         0.377731      0.621356      0.333129
Ti       1.92624      9.71089      2.19433         0.188634      0.920519     -1.186436
Ti       1.94414      9.75781     14.64107        -0.270267     -0.020421      0.687335
Ti      13.66721      9.69075      2.27666        -0.464671      0.233255     -0.645269
Ti      13.64581      9.69653     14.70799        -0.160294      0.433923     -0.828591
Ti       1.84623      9.62447      6.46347        -0.449602      0.795977     -0.144069
Ti      13.60148      9.73387      6.25288         0.735212      0.010984      1.112349
Ti       1.98827      9.65629     10.36747        -0.370199      0.056381      0.788360
Ti      13.50710      9.79635     10.66667         0.495103     -1.078632     -0.109277
Ti       5.82948      1.90858      2.18556         0.053742      0.853239     -0.319459
Ti       5.82515      1.92479     14.72104         0.193611     -0.162478      0.401919
Ti       5.85954     13.55059      2.21967        -0.787017     -0.332043     -1.369991
Ti       5.85843     13.64916     14.71271        -0.010328     -0.184170      0.827497
Ti       5.85917      1.89994      6.29389        -0.183318     -0.409174      0.617238
Ti       5.72614     13.58276      6.23030         0.691294      1.463368      0.395414
Ti       5.78323      1.91616     10.52918         0.701188     -0.024042     -1.242702
Ti       5.82912     13.58937     10.45897         1.195064      0.043673      0.640648
Ti       5.88298      5.90203      2.20210         0.287286     -0.521027      0.373924
Ti       5.83321      5.79892     14.67479         0.256615     -0.129672      0.431989
Ti       5.76930      5.71298      6.24603         0.553806      0.560594      0.208166
Ti       5.76899      5.80298     10.47872         0.636509      0.599429     -0.120645
Ti       5.84204      9.70785      2.31304        -0.152354      0.583107     -1.063377
Ti       5.89036      9.61003     14.63398        -0.414613      0.955875      0.111220
Ti       5.81303      9.66666      6.27144         0.598784      0.066390      1.118633
Ti       5.86584      9.61668     10.33722        -0.009494      0.194898     -0.063107
Ti       9.74608      1.96394      2.19845         0.297469      0.784929      0.267419
Ti       9.74913      1.93788     14.65334        -0.094442      0.565674      0.760117
Ti       9.77087     13.52179      2.17761         0.208479     -0.221862      0.138450
Ti       9.68995     13.65476     14.65562        -0.232010     -0.714319      0.220535
Ti       9.67006      2.02506      6.35841         1.012881     -0.431903      0.820517
Ti       9.80569     13.65017      6.40525         0.025524     -0.194715      0.081019
Ti       9.79051      1.91586     10.56213        -1.000809     -0.290897     -0.591919
Ti       9.76471     13.69662     10.49377        -1.370006     -0.480521     -0.585615
Ti       9.74318      5.84620      2.26839        -1.170075     -0.674427     -0.388308
Ti       9.64819      5.74047     14.66846         0.279821     -0.054356     -0.174566
Ti       9.68464      5.79705      6.37917        -0.280375     -0.329653      0.155096
Ti       9.81172      5.64902     10.53972        -0.384026      1.564592     -0.442550
Ti       9.77929      9.71180      2.15275        -0.275044     -0.365067      1.247256
Ti       9.78996      9.83304     14.63698        -0.638056      0.248937      0.917434
Ti       9.76786      9.80548      6.33280        -0.748594     -0.212398      0.452772
Ti       9.76298      9.76194     10.41201        -0.409841      0.339025     -0.265637
O       1.85943      1.92400      0.35914         0.266945     -0.167824      1.090206
O       1.86213      1.89682     12.86423         0.194629     -0.074503     -0.542538
O       2.03217     13.56323      0.43447        -0.415045      0.242624     -1.078554
O       1.90523     13.56940     12.67365         0.262482      0.164062      0.840991
O      13.73835      2.09421      0.38885        -0.620723     -0.815860      0.919066
O      13.74129      1.94471     12.94564        -0.541669      0.109403     -0.160737
O      13.47402     13.59795      0.47276         0.299336      0.362101      0.041305
O      13.62222     13.64602     12.79007        -0.045240      0.251793      0.326527
O       1.85096      2.06325      4.54216         0.279160     -0.625580      0.358398
O       1.93238     13.65425      4.46972        -0.209269     -0.272853      0.837196
O      13.60593      1.73101      4.58039         0.258439      0.848768     -1.118934
O      13.75192     13.58792      4.49550        -0.052498      0.134021     -0.062331
O       1.89659      1.95075      8.76005         0.184704     -0.075272     -0.204304
O       1.96557     13.63012      8.63072         0.070000     -0.017252     -0.514229
O      13.51093      1.94561      8.71734         0.435679     -0.043474      0.135318
O      13.69800     13.69203      8.69157        -0.420256     -0.275731     -0.291654
O       1.89484      5.99288      0.45097         0.202022     -0.235813      0.252010
O       2.04278      5.85229     12.79246         0.038666      0.226485      1.053577
O      13.69264      5.67419      0.33371        -0.079752      0.830682      0.020339
O      13.48117      5.74640     12.87891         0.024034      0.115154      0.839071
O       1.78839      5.78698      4.58500         0.330335      0.439346      0.304651
O      13.58187      5.79173      4.51641        -0.323729      0.280746      1.047761
O       1.76293      5.60139      8.76012         0.513692      0.450767     -0.042642
O      13.63712      6.03850      8.72294        -0.115795     -0.715348      0.221882
O       1.85270      9.71625      0.37546         0.344948     -0.249275      0.883417
O       1.77492      9.59873     12.83079         0.584587      0.269045      0.077145
O      13.46236      9.62667      0.54114         0.561099      0.284559     -1.165821
O      13.54529      9.63225     12.82288         0.414225      0.476470      1.130198
O       1.91669      9.61672      4.61822        -0.141700      0.320331     -0.006872
O      13.59419      9.82869      4.50787         0.360334     -0.253218     -0.701003
O       1.98141      9.73831      8.60824        -0.037339      0.198124     -0.697224
O      13.60996      9.73211      8.89538        -0.307030      0.070957     -0.805251
O       5.86274      1.97684      0.40714        -0.206384     -0.073240     -0.055904
O       5.86989      1.89692     12.92371        -0.353108      0.009675     -0.127456
O       5.81608     13.43142      0.36404        -0.051765      0.421349      1.475632
O       5.82799     13.49742     12.91933        -0.120435      0.393620     -1.023637
O       5.73064      2.02669      4.51486         0.182048     -0.391665      0.282007
O       5.74917     13.70707      4.48809         0.291232     -0.013644     -0.618428
O       5.71776      2.00467      8.68237         0.059837     -0.472257      1.000056
O       5.70438     13.52762      8.73060         0.276800      0.166202     -0.831976
O       5.92582      5.83006      0.37938        -0.671199     -0.032715      0.435083
O       5.84265      5.85855     12.89574        -0.327644     -0.164050     -0.238728
O       5.73304      5.85227      4.47302         0.000761     -0.263961      0.120148
O       5.93179      6.01489      8.67769        -0.621886     -0.711688      0.381447
O       5.85294      9.68534      0.47789         0.190085      0.250422      0.344487
O       5.90596      9.63856     12.84942        -0.381953      0.323456     -0.100595
O       5.77452      9.69231      4.54217        -0.035966     -0.112585     -1.474111
O       5.81688      9.53092      8.50904         0.149663      0.587564      1.103107
O       9.73737      2.02125      0.40727        -0.046392     -0.644159      0.699793
O       9.68605      2.10060     12.90908         0.207331     -0.466093     -0.439317
O       9.79982     13.66750      0.41316         0.113721     -0.116820     -0.004582
O       9.58925     13.62151     12.88683         0.412727     -0.097729      0.106281
O       9.57792      1.92705      4.56835         0.297159     -0.003467     -0.389944
O       9.77254     13.51563      4.56693        -0.411511      0.550183      0.039277
O       9.68657      1.83790      8.73712         0.106097     -0.162704      1.029225
O       9.73790     13.67694      8.64667        -0.104567      0.245541      0.645747
O       9.68112      5.82254      0.46704        -0.035114      0.210220     -0.231727
O       9.56253      5.68695     12.85259         0.527697      0.264330      0.613986
O       9.80868      5.63755      4.58714        -0.193083      0.399419      0.005029
O       9.63273      5.68615      8.72628         0.301560      0.609535      0.139896
O       9.68192      9.61947      0.36605         0.059134     -0.039448      0.082670
O       9.84584      9.87616     12.90070        -0.420437     -0.179033     -1.178466
O       9.73843      9.75719      4.49109        -0.059952      0.136671      0.984737
O       9.81500      9.75931      8.59318        -0.241751     -0.440275      0.261228
O       3.83769      1.99196      2.48259         0.470944     -0.213938      0.095587
O       3.80249      1.91582     15.05907         1.418567      0.273245     -0.226271
O       3.84442     13.61264      2.45300         1.238745     -0.132711      0.528258
O       3.85750     13.74196     14.91755        -0.402869     -0.485304     -0.207041
O      15.58409      1.82270      2.50832        -0.768738      0.232395      0.083219
O      15.57106      1.95372     14.97586        -0.439917     -0.224070      0.176421
O      15.59424     13.71479      2.36372        -0.583366      0.267208      0.481993
O      15.56977     13.59925     14.92988         0.248420      0.320049      0.201007
O       3.77414      1.85603      6.64036         0.830187      0.264327      0.203488
O       3.83237     13.54593      6.49873         0.026243      0.013303      0.439778
O      15.52951      2.02468      6.75326         0.972968     -0.715397     -0.414404
O      15.58078     13.59799      6.65134         0.780977      0.118250      0.046450
O       3.81920      1.95069     10.77497         0.510732     -0.367089      0.293017
O       3.84895     13.60180     10.78234         0.807916     -0.282860     -0.069254
O       0.01234      1.79000     10.84941        -0.876697      0.625017     -0.422258
O      15.54921     13.46237     10.57950         1.391383      0.118165      0.399050
O       3.88945      5.77922      2.42984        -0.655407      0.177972      0.097589
O       3.86945      5.65899     15.09760         0.374450      1.033089     -0.560860
O      15.56471      5.76623      2.45953        -0.117807      0.455696     -0.045806
O      15.55740      5.80979     14.86021        -0.218179      0.702781      0.261042
O       3.86828      5.87286      6.56825        -0.465550      0.146332      0.168671
O      15.54290      5.91061      6.68330        -0.280363      0.041954     -0.137918
O       3.86585      5.65548     10.81602         0.000919      0.864561     -0.568380
O      15.58531      5.85817     10.93503        -0.030052     -0.177969     -0.192275
O       3.85071      9.81145      2.47925        -0.143753      0.027443      0.329513
O       3.85526      9.66749     14.94185        -0.008921      0.200292     -0.198879
O      15.59586      9.65415      2.51122         0.066365     -0.182234      0.319375
O      15.59705      9.71396     15.03902        -0.663522     -0.017286     -0.357445
O       3.88931      9.65518      6.52649        -0.163657      0.094245      0.288717
O      15.50582      9.67293      6.72738         0.657762      0.154715     -0.195012
O       3.86938      9.66360     10.75161         0.714160      0.121950      0.101849
O      15.57511      9.71960     10.71804        -0.084633      0.110615      0.418614
O       7.71288      1.86024      2.48357         1.051375      0.119032      0.172324
O       7.80972      1.96463     15.00522         0.108362     -0.308072      0.100923
O       7.80576     13.52689      2.50836         0.116813      0.532149      0.030777
O       7.70453     13.63636     15.00125         0.979403     -0.108473      0.057387
O       7.72968      2.01169      6.60100        -0.697022     -0.432741      0.122661
O       7.75254     13.58308      6.64620        -0.383510      0.408043     -0.120297
O       7.72878      1.93953     10.90923        -0.125095     -0.142705     -0.409453
O       7.76754     13.65047     10.77657        -0.994331      0.066159     -0.195033
O       7.74000      5.90013      2.50373        -0.293546      0.068083      0.295227
O       7.75119      5.75434     15.07798         0.355171      0.272879     -0.568502
O       7.68365      5.71938      6.58303         0.750072      0.013815      0.092402
O       7.70192      5.74999     10.75299        -0.017908      0.218165      0.320084
O       7.82351      9.62061      2.60398        -0.654930      0.132130     -0.425667
O       7.77457      9.80970     14.89891        -0.584708     -0.322072      0.373946
O       7.77843      9.73432      6.46979         0.380764      0.211919      0.397307
O       7.79862      9.64593     10.66233        -0.537298     -0.010591      0.138872
O      11.66030      1.94128      2.62896        -0.842394      0.011493     -0.553219
O      11.70086      1.86560     15.02160        -0.296716     -0.272155     -0.214876
O      11.68840     13.46243      2.61431        -0.950432      0.419187     -0.212790
O      11.69852     13.51739     14.89310        -0.516684      0.788226     -0.102206
O      11.63656      2.09839      6.65300         0.183658     -0.875682     -0.168645
O      11.73887     13.65731      6.63676        -0.192741     -0.174152      0.032602
O      11.71067      1.96466     10.86391        -0.083189     -0.039904      0.046330
O      11.58796     13.73896     10.80336         1.031469     -0.238108      0.120209
O      11.63039      5.71681      2.40904         0.741825      0.262721      0.235167
O      11.60077      5.95752     15.09835         0.338665     -0.053421     -0.519092
O      11.59536      5.76058      6.70974         0.953723      0.205513     -0.302063
O      11.73040      5.59198     10.82380        -0.735365      0.288135     -0.211051
O      11.67228      9.61674      2.59956        -0.348743      0.270667     -0.219444
O      11.64969      9.72317     14.93022         0.658866     -0.040975      0.260417
O      11.70516      9.78022      6.53617        -0.780021      0.227883      0.163999
O      11.58843      9.66764     10.82399         0.662094     -0.089481      0.176312
O       1.77336      3.91536      2.50408         0.758565     -0.331282     -0.151169
O       1.79577      3.95390     14.85706         0.522444     -0.607514      0.234961
O       2.00733     15.58471      2.46485        -0.066041      0.447703      0.147825
O       1.88530     15.59259     14.85532        -0.047142     -0.589664      0.277718
O      13.53061      3.86971      2.62151         0.531725     -0.479604     -0.369775
O      13.51616      3.91722     15.03616         0.011567     -0.104558     -0.533765
O      13.44245     15.58479      2.57892         0.406208     -0.062406     -0.428991
O      13.64637     15.59564     14.96620        -0.103859     -0.533733      0.130635
O       1.91588      3.91367      6.64954        -0.117262     -0.369633      0.178214
O       1.84781     15.57703      6.63586         0.273073      0.042421     -0.169816
O      13.67958      3.91546      6.59706        -0.331990      0.637451      0.137710
O      13.64738     15.57619      6.59055         0.156272     -0.016302      0.328756
O       1.84363      3.79018     10.85659         0.177179      0.318589      0.031561
O       1.87556     15.46344     10.76413         0.294734      1.186184     -0.058730
O      13.79599      3.89542     10.77320        -0.355650     -1.020600      0.016742
O      13.62450      0.00024     10.90014         0.327642     -0.171930     -0.540890
O       1.93355      7.80221      2.62629         0.246862     -0.430110     -0.212345
O       1.96294      7.80095     14.99265        -0.153015     -0.669809     -0.066042
O      13.62753      7.70785      2.52091        -0.122616     -0.258932     -0.122050
O      13.65670      7.84463     14.91695        -0.105363     -0.816884      0.236383
O       1.89060      7.82326      6.69224         0.146827     -1.588707     -0.108770
O      13.51514      7.87650      6.63875         0.058300     -1.189193     -0.199624
O       1.85225      7.75305     10.60690         0.488336     -0.212198      0.409123
O      13.61647      7.73185     10.91144        -0.149085      0.456359     -0.072975
O       1.78209     11.68583      2.52693         0.524969     -0.701246      0.131003
O       1.90081     11.67594     14.76102         0.274447      0.284950      0.301483
O      13.77403     11.66544      2.45934        -0.202238     -0.271035      0.261929
O      13.65336     11.70203     14.97747        -0.009679     -0.415609      0.062353
O       1.89883     11.64854      6.63772        -0.026412     -0.016827     -0.070118
O      13.73804     11.68826      6.67643        -0.529568      0.030170      0.222231
O       1.95005     11.59836     10.71185         0.047484      0.343937      0.134211
O      13.45399     11.73061     10.81978         0.194819      0.102826     -0.291668
O       5.76085      3.92622      2.51297         0.356818     -0.114830     -0.216062
O       5.91095      3.83123     14.97466        -0.690959      0.676904      0.103674
O       5.85939     15.60773      2.41578        -0.407468     -0.903667      0.352306
O       5.80827     15.57555     15.01687         0.112034      0.331302     -0.039008
O       5.66430      3.85054      6.66130         0.107906      0.022153     -0.217051
O       5.71917     15.55314      6.61037         0.177626      0.399079      0.190870
O       5.76587      3.87960     10.79983         0.163977     -0.179742     -0.079790
O       5.77406      0.01196     10.74097        -0.128447     -0.978173      0.177634
O       5.67018      7.85085      2.61336         0.399711     -0.814689     -0.101082
O       5.70855      7.77584     14.94803         0.418337     -0.707524      0.092021
O       5.98473      7.73967      6.54977        -0.808692      0.003751     -0.146660
O       5.76823      7.79093     10.81375        -0.009714     -0.660672     -0.149048
O       5.88519     11.69828      2.66976        -0.281474     -0.398127     -0.342533
O       5.72583     11.66015     15.00811         0.441923     -0.504877     -0.463967
O       5.82752     11.68139      6.49522        -0.288891     -0.471860      0.272744
O       5.87914     11.57322     10.76513        -0.389450      0.365532     -0.177610
O       9.54391      3.89128      2.55260         0.321523     -0.924836     -0.331016
O       9.93452      3.88957     15.08546        -0.840619      0.220151     -0.470871
O       9.73367     15.52408      2.38089         0.060361      0.332065      0.537770
O       9.63818     15.57337     15.07601         0.613721      0.048301     -0.328876
O       9.66492      3.83827      6.79592        -0.190125      0.666828     -0.529283
O       9.72723     15.56486      6.71187        -0.162571      0.399269     -0.385731
O       9.67548      3.86461     10.75154        -0.081175     -1.426959      0.319341
O       9.65960     15.59555     10.89781         0.128728      0.436626     -0.165180
O       9.70241      7.71319      2.53358         0.327232      0.425893      0.039472
O       9.60977      7.83547     14.90192         0.356640     -0.543124      0.087504
O       9.73168      7.73573      6.61986        -0.265678      0.346731     -0.043843
O       9.72846      7.70644     10.90522         0.256107      0.091095     -0.313905
O       9.66263     11.56236      2.39434         0.205449      0.724226      0.251749
O       9.62849     11.70191     15.14745         0.376627      0.271939     -0.641666
O       9.66807     11.71723      6.56187         0.103563     -0.843561      0.025785
O       9.74346     11.66962     10.70343        -0.027714      0.043709      0.362213
