  # total energy = -7882.58292780 
CRSYTAL
PRIMVEC
    15.6080000000000005    0.0000000000000000    0.0000000000000000
     0.0000000000000000   15.6080000000000005    0.0000000000000000
     0.0000000000000000    0.0000000000000000   16.6239999999999988
PRESSURE
-0.783447 -0.874128 -0.205538 0.142181 -0.3022 -0.078862
PRIMCOORD
320 1
Pb       3.78167      3.82368      4.13067         0.263170     -0.208731     -0.109228
Pb       3.80061      3.79462     16.50623         0.371320      0.612851      0.749288
Pb       3.90820     15.47273      4.18447         0.204174      0.258429     -0.396734
Pb       3.99969     15.60680     16.57245        -0.191368     -0.523405      0.683255
Pb       0.03168      3.94698      4.13537        -0.300930     -0.346523     -0.263278
Pb       0.03215      3.89673      0.00529        -0.585199     -0.060969     -0.150292
Pb       0.03916     15.52980      4.24562        -0.042943      0.169996     -0.659577
Pb      15.60548     15.60665     16.58281        -0.196869      0.039929     -0.113438
Pb       4.03648      3.93586      8.20839        -0.371827     -0.322301      0.575957
Pb       3.87968     15.42186      8.23384         0.059199      0.691066      0.648074
Pb       0.01941      3.92459      8.29129        -0.451322     -0.200489     -0.452622
Pb      15.52210     15.53575      8.34896         0.156633      0.534649     -0.043817
Pb       3.90086      3.77827     12.40390        -0.433219      0.178684      0.023295
Pb       3.97421      0.12249     12.48751        -0.693889     -0.309444     -0.258198
Pb      15.57732      4.01548     12.51553         0.453664     -0.618694      0.293724
Pb       0.02683     15.47449     12.35204         0.154601      1.238067      1.253616
Pb       3.96941      7.73188      4.02294        -0.553131      0.212434      0.504139
Pb       3.89771      7.83857      0.01182         0.327121     -0.106411     -0.434742
Pb      15.44844      7.73152      4.12361         0.149671      0.466105     -0.059753
Pb      15.59364      7.74221     16.61657        -0.133585     -0.163669     -0.724151
Pb       3.78616      7.79206      8.30802        -0.037336      0.367509     -0.161032
Pb       0.00130      7.73928      8.23254        -0.146384      0.702925      0.151269
Pb       3.84819      7.74526     12.37514         0.208538      0.240133      0.446211
Pb      15.59910      7.74724     12.36766        -0.208062      0.076683      0.535398
Pb       3.91870     11.63695      4.19409        -0.055522      0.103028     -0.685385
Pb       3.85316     11.72035      0.06413         0.230242     -0.200014     -0.165953
Pb       0.00947     11.61727      4.14789         0.130228     -0.090678     -0.395404
Pb      15.59449     11.56827     16.53876        -0.060776      0.278744      0.074527
Pb       3.92268     11.66240      8.43079        -0.508343      0.399052     -0.548983
Pb       0.07206     11.74810      8.30077        -0.097537     -0.549358      0.211257
Pb       3.78620     11.65842     12.49270         0.175560      0.119547     -0.134740
Pb      15.45955     11.84081     12.51431         0.146060     -0.590098     -0.141069
Pb       7.84846      3.96128      4.09074         0.269217     -0.355653      0.175579
Pb       7.82517      3.81411      0.02954        -0.234346      0.343111     -0.322957
Pb       7.88688      0.03508      4.21348        -0.469522      0.135988     -0.350860
Pb       7.79216     15.53672     16.52746         0.024751      0.348503      0.268502
Pb       7.91927      3.82944      8.20049        -0.691701     -0.141175      0.129018
Pb       7.70900      0.01896      8.17788         0.136728      0.131436      0.233948
Pb       7.85751      3.90020     12.55213        -0.520310      0.307413     -0.495816
Pb       7.75989     15.58388     12.33548        -0.170079     -0.045593      0.021033
Pb       7.91775      7.77633      4.16983        -0.221070     -0.027203     -0.196463
Pb       7.68769      7.57935      0.06863        -0.140363      0.216227     -0.348562
Pb       7.72685      7.72745      8.26094         0.153221      0.251416      0.339528
Pb       7.63645      7.95487     12.50715         0.220202     -0.587202     -0.608828
Pb       7.80670     11.62962      4.12758        -0.183901      0.126112      0.008252
Pb       7.83723     11.71394      0.00792        -0.303494     -0.185301     -0.353791
Pb       7.94368     11.63044      8.41960        -0.558331      0.365762     -0.219284
Pb       7.77268     11.83778     12.46296        -0.189722     -0.347896     -0.094976
Pb      11.61895      3.83704      3.99037         0.442253      0.266916      0.605685
Pb      11.63397      3.76005      0.03514        -0.065458      0.708181     -0.442696
Pb      11.80776     15.58452      4.14054         0.015460      0.232318     -0.190953
Pb      11.76485     15.59604     16.54640        -0.208265      0.112242     -0.236864
Pb      11.66304      3.80584      8.25152         0.672062      0.093500     -0.463713
Pb      11.82450     15.55618      8.37857        -0.268010      0.448914     -0.615104
Pb      11.59308      3.93683     12.32634         0.243646     -0.116879     -0.012305
Pb      11.55162      0.08655     12.50319         0.254594      0.139383     -0.338262
Pb      11.66693      8.06985      4.24133         0.287710     -0.541970      0.029806
Pb      11.80401      7.75337     16.59764        -0.423875     -0.069808     -0.335167
Pb      11.71115      7.66523      8.38859        -0.079923      0.117239     -0.559212
Pb      11.78549      7.79814     12.45416        -0.272955     -0.553554     -0.924893
Pb      11.76117     11.88219      4.07533        -0.119948     -0.529196      0.424961
Pb      11.51944     11.63821      0.03263         0.556548      0.170743     -0.691685
Pb      11.56826     11.65980      8.32322         0.080808     -0.234341     -0.160120
Pb      11.68570     11.56493     12.53381        -0.266451      0.511422     -0.435084
Ti       1.87698      1.88138      2.18025         0.302632     -0.728592      1.114795
Ti       1.88344      1.82511     14.78187        -1.219363      0.777714     -2.033972
Ti       1.97676     13.56833      2.27444        -0.152878     -0.239874     -0.999070
Ti       1.94429     13.58011     14.76099        -0.165417      0.457624     -0.456089
Ti      13.62192      1.95451      2.10459         0.398122      0.218645      0.212734
Ti      13.55466      2.07167     14.66861         0.816019     -1.017413      0.672391
Ti      13.70487     13.60890      2.17529         0.124346      0.558380      0.250761
Ti      13.60404     13.69685     14.69599        -0.023352      0.074856      0.236008
Ti       1.92097      1.97136      6.43763        -0.521155      0.081476     -0.773081
Ti       1.87976     13.76256      6.40711         0.811825     -1.127430      0.442626
Ti      13.68867      1.96272      6.24101        -1.027436      0.196965      0.454842
Ti      13.63324     13.62143      6.42623        -0.062158      0.457390     -0.407788
Ti       1.86547      1.99840     10.45162         0.668267     -0.508235      0.060100
Ti       1.88126     13.68056     10.61064         0.822153      0.262991     -0.930932
Ti      13.70788      1.89525     10.61774        -0.500450      0.839338      0.021421
Ti      13.60425     13.68727     10.57537        -0.514330     -1.006219      0.271202
Ti       1.92280      5.75910      2.18902         0.213085      1.192881      0.360622
Ti       1.98628      5.81722     14.72239        -1.081467     -0.725008     -0.437189
Ti      13.64621      5.89932      2.09171        -0.815506     -0.676437      0.024199
Ti      13.59691      5.87962     14.61412         0.313165     -0.299242      1.347054
Ti       2.00031      5.88675      6.33099        -1.521301      0.438355     -0.529307
Ti      13.64872      5.91341      6.29843        -0.905233     -0.733942      0.907568
Ti       1.92385      5.81393     10.50051         0.587198     -0.457647      0.461670
Ti      13.70038      5.71414     10.46301        -1.422596      1.130547     -0.284143
Ti       1.93450      9.60969      2.17975        -0.270999      1.089271      0.846286
Ti       1.95042      9.70412     14.65914         0.190922     -0.024114      0.528315
Ti      13.56285      9.80997      2.11441         1.439754     -0.727463      0.052160
Ti      13.63411      9.79141     14.54579        -0.038179     -0.034661      1.826689
Ti       1.88282      9.81282      6.28084        -0.327750     -0.324462      0.496818
Ti      13.58508      9.80392      6.46135         0.043508     -0.446106     -0.555273
Ti       1.81549      9.75701     10.62154         0.953913      0.056819     -0.668312
Ti      13.59522      9.72020     10.46556         0.011092      0.025717     -0.206324
Ti       5.82141      1.93209      2.27278        -0.159406     -0.617931     -0.402767
Ti       5.73821      1.99106     14.69319         1.135690      0.321856     -0.998212
Ti       5.89175     13.63150      2.17904        -1.000885      0.512107     -0.233349
Ti       5.87661     13.69087     14.63719        -0.359137     -0.576207      0.349524
Ti       5.77206      1.96377      6.36895         0.274560     -0.812106     -0.105067
Ti       5.89779     13.61948      6.42039        -0.771926      0.515843      0.296355
Ti       5.82135      1.96718     10.49916        -0.671401     -0.028859     -0.295121
Ti       5.76659     13.62908     10.52505        -0.025602      0.214159     -0.166779
Ti       5.87150      5.74419      2.31191        -0.062148      0.613572     -2.373974
Ti       5.77751      5.87707     14.57264         0.446660      0.352132      0.561708
Ti       5.87166      5.90948      6.42335        -0.437256     -0.102488     -0.042372
Ti       5.83107      5.81773     10.56724         1.114415     -0.127756     -0.686050
Ti       5.82958      9.66842      2.15446        -0.625907      0.772669      0.047589
Ti       5.89689      9.81797     14.69474        -0.675290     -0.646227      1.853146
Ti       5.69083      9.84679      6.43560         1.197724     -0.152449     -0.284822
Ti       5.76089      9.72111     10.46743         0.176379      0.309297      0.867287
Ti       9.70885      1.91568      2.16532        -0.034594      0.039637      0.125660
Ti       9.63379      1.96359     14.61537         0.959683      0.170158      2.043370
Ti       9.68731     13.70998      2.13598         0.457649     -0.401149      0.662606
Ti       9.71258     13.63089     14.64751         0.547180      0.116784      0.550277
Ti       9.77790      1.86301      6.25737         0.399253      0.249546      0.290069
Ti       9.75346     13.66619      6.34826         0.030385     -0.199470      0.717119
Ti       9.62358      1.97645     10.39655         1.279708     -0.459895      0.036218
Ti       9.75517     13.67260     10.51853        -0.128223     -0.010181      0.783746
Ti       9.84227      5.88854      2.21553        -0.060575     -0.207508      0.260407
Ti       9.65620      5.92909     14.54765         0.651822     -1.037255      0.708794
Ti       9.69693      5.79148      6.36760         1.850865      0.527113     -0.614174
Ti       9.70524      5.79197     10.38173        -0.156643      1.782809      0.942313
Ti       9.72113      9.83414      2.26541         0.016467     -0.568672      0.384553
Ti       9.71888      9.64063     14.67634        -0.197728      0.896460      0.954047
Ti       9.60308      9.71985      6.38914         1.271641     -0.203846      0.061444
Ti       9.65612      9.76199     10.60868         0.281654     -0.914637     -0.334805
O       1.90947      1.88086      0.44139         0.370242      0.080915     -1.214191
O       1.99494      1.85389     12.97133        -0.064253      0.238886      0.454385
O       1.97144     13.44447      0.45801        -0.019776      0.258814     -0.388868
O       1.98537     13.62848     12.96419        -0.551854      0.189263      0.003141
O      13.57334      1.89295      0.29873        -0.257074     -0.314410      1.042468
O      13.49654      2.01055     12.92086         0.077774     -0.012165     -1.492798
O      13.57892     13.62189      0.42986         0.299488      0.146612     -0.462447
O      13.69466     13.68853     12.91255        -0.268104     -0.286482     -0.438795
O       1.80224      1.90255      4.60018         0.194080      0.554457      0.236990
O       1.82166     13.74099      4.64419         0.312204     -0.004045     -0.594146
O      13.50859      2.02585      4.45823         0.689630     -0.223948     -0.057908
O      13.67505     13.69625      4.63884        -0.175220     -0.430726     -0.120551
O       1.83893      2.08437      8.67117        -0.201353     -0.140343     -0.195704
O       1.80308     13.79891      8.81475         0.168964     -0.865563     -0.253371
O      13.64985      1.86203      8.87414        -0.020671      0.060979     -0.556110
O      13.70775     13.80818      8.80992        -0.296098     -0.293217     -0.848705
O       1.98354      5.77970      0.45968        -0.163957      0.091648     -1.262027
O       2.00214      5.53002     12.92703        -0.336886      1.084776      0.530884
O      13.55081      5.89830      0.29182         0.224630      0.593424      0.902353
O      13.64763      5.85050     12.82818        -0.312081     -0.056769      0.094602
O       1.68613      6.01753      4.54056         0.847058     -0.753674      0.293812
O      13.64770      5.82801      4.51188         0.321470      0.065010      0.376444
O       1.87136      5.88754      8.74059         0.070255      0.013263     -0.449641
O      13.71018      5.63252      8.66430        -0.217680      0.832831      0.700862
O       1.87311      9.83347      0.40439         0.195412     -0.218150     -0.334984
O       1.89120      9.61800     12.92968         0.401340      0.218789     -1.214204
O      13.48514      9.87934      0.33351         0.595831     -0.502794      0.274921
O      13.41960      9.84573     12.79202         0.291923     -0.550134     -0.668765
O       1.89590      9.76567      4.49244        -0.037359     -0.148688      0.781552
O      13.69333      9.80956      4.64494        -0.377910     -0.213104      0.382599
O       1.91784      9.75102      8.83677         0.044874     -0.137354      0.220836
O      13.64546      9.71539      8.68250        -0.304513      0.122255      0.369335
O       5.84371      2.06675      0.45127        -0.000469     -0.597175      0.143153
O       5.78201      1.92441     12.84181        -0.281364      0.112864      1.101350
O       5.94001     13.85263      0.39038        -0.253425     -0.419384      0.400772
O       5.82941     13.68517     12.84371         0.197401     -0.022661      0.276108
O       5.74096      1.90282      4.60929         0.040369      0.408434     -0.376992
O       5.63572     13.63512      4.67644         0.651418     -0.326534     -1.056815
O       5.75880      1.96991      8.71463         0.178099      0.023994      0.085626
O       5.67415     13.73601      8.72381         0.200062     -0.134538      0.857826
O       5.99602      5.87716      0.39045        -0.394516     -0.225903      1.826326
O       5.82943      5.82714     12.78979        -0.262796      0.107061      0.030640
O       5.79789      5.83397      4.67280         0.030355      0.143524     -0.857607
O       5.98215      5.81201      8.72596        -0.620933      0.128651     -0.214007
O       5.79592      9.57763      0.36799         0.215709      0.238772      0.860457
O       5.78342      9.74857     12.96956         0.451667      0.039116     -1.309608
O       5.70568      9.90183      4.63507         0.491329     -0.051810      0.195960
O       5.76141      9.82063      8.68701        -0.094965     -0.123548      0.732960
O       9.69684      2.00938      0.35153        -0.152426     -0.045069      0.631528
O       9.65831      2.06658     12.87763         0.192602     -0.341580     -1.230269
O       9.61008     13.50514      0.37379         0.323307      0.649416      0.109525
O       9.68824     13.80223     12.89584         0.047780     -0.182170     -0.728050
O       9.75604      1.95639      4.44017        -0.216616     -0.437794      1.130762
O       9.69459     13.68898      4.60047         0.009587     -0.311633     -0.608702
O       9.69039      1.97748      8.60853        -0.308393     -0.115539      0.653314
O       9.86960     13.61155      8.77744        -0.265652     -0.154457     -0.860152
O       9.73152      5.89058      0.46079        -0.211558     -0.104625     -0.354359
O       9.81167      5.89571     12.77258        -0.469180     -0.044180      0.554561
O       9.86703      5.73561      4.57232        -0.643727      0.280660      0.119299
O       9.84801      5.82705      8.57820        -0.990521     -0.231780      0.517134
O       9.77729      9.86057      0.53631        -0.158608     -0.106365     -0.689670
O       9.64608      9.77992     12.92575         0.368828     -0.312104     -1.129087
O       9.68353      9.71261      4.57882        -0.140824      0.239485     -0.318890
O       9.66036     10.05079      8.82869        -0.004592     -0.610890     -0.287111
O       3.89622      2.07712      2.58763        -0.313077     -0.197036     -0.276964
O       3.83792      1.87039     15.02989         1.037170      0.367370     -0.051558
O       3.84275     13.64504      2.52219         0.783419      0.033927      0.261369
O       4.04239     13.58811     15.03630        -1.569787      0.395082      0.065800
O      15.58436      1.98281      2.35502        -0.403272     -0.367461      0.537265
O      15.54684      1.84483     14.98784         0.436373     -0.044912      0.229015
O       0.03249     13.58005      2.55165        -0.990969      0.478625      0.001641
O      15.56047     13.74551     15.04020         0.449816     -0.634506     -0.168290
O       3.78320      1.95332      6.73994         0.750819      0.320615     -0.340956
O       3.79246     13.60979      6.79781        -0.317493      0.088715     -0.354249
O      15.49364      1.96377      6.66346         0.894519      0.206149     -0.077554
O       0.01588     13.53198      6.71545        -1.221361      0.866445      0.143316
O       3.75888      1.90102     10.76982         0.859581      0.443981      0.373573
O       3.78025     13.65223     10.94777         0.738384     -0.088937     -0.514341
O       0.02544      2.04741     10.90364        -1.581127     -0.579354      0.108136
O      15.51882     13.64990     10.91448         0.694796     -0.405093      0.096997
O       3.96209      5.73249      2.55367        -0.476389      0.003210      0.153201
O       3.83163      5.76721     15.02335         0.421195      0.152628     -0.090923
O      15.53350      5.93850      2.39706         0.597063     -0.084928      0.092357
O      15.56602      5.73108     15.08309         0.589456      0.996907     -0.364522
O       3.85050      5.98796      6.68746         0.633645     -0.426864      0.031680
O      15.55813      5.98178      6.71645         0.114728     -0.768628     -0.560616
O       3.93211      5.80383     10.73631        -1.359110     -0.150061      0.040906
O      15.52466      5.84591     10.92525         1.057480     -0.024397     -0.533253
O       3.92959      9.75490      2.55545        -0.513278     -0.094183     -0.291134
O       3.88959      9.74152     14.99940        -0.550821      0.299505      0.130904
O       0.00391      9.67679      2.44936        -0.088655     -0.058600     -0.031460
O      15.53543      9.79168     14.81540         0.332306     -0.067026      0.594286
O       3.84267      9.79219      6.69605        -0.603233      0.264776      0.123229
O      15.53366      9.73917      6.78882         0.510222      0.162837     -0.567856
O       3.85702      9.71496     10.94983         0.264466      0.116279     -0.361928
O      15.60692      9.57017     10.93490        -0.914707      0.549605     -0.289924
O       7.78615      1.85140      2.57712        -0.145214      0.156468     -0.076392
O       7.81553      2.02802     14.87264        -1.333487     -0.147814      0.430414
O       7.75144     13.58236      2.42766         0.443264      0.426958      0.717766
O       7.77039     13.66936     14.93117         0.179961     -0.059007      0.191509
O       7.71808      1.85608      6.60211         0.403393      0.102275      0.011833
O       7.77054     13.77070      6.74078         0.522767     -0.651551     -0.349146
O       7.70224      1.96490     10.77514         0.731027     -0.098234      0.050386
O       7.78176     13.66728     10.74466        -0.958892      0.397064      0.285853
O       7.81489      5.93448      2.58176        -0.229438     -0.234118      0.296078
O       7.70532      5.96772     14.79276         0.672021     -0.275201      0.157431
O       7.74341      5.85522      6.53674         0.405419     -0.093405      0.529193
O       7.77606      5.88408     10.77852         0.191470     -0.222274      0.195873
O       7.75943      9.67736      2.63394         0.164711      0.456537     -0.398135
O       7.81973      9.71256     15.07631        -0.267325      0.005832     -0.254160
O       7.77625      9.79102      6.77090        -0.478794      0.176917     -0.148917
O       7.71773      9.76258     10.89827        -0.715698      0.151809     -0.156169
O      11.62085      1.89856      2.44756         0.751552      0.210976     -0.348766
O      11.62675      2.01607     14.98010        -0.219411     -0.079866     -0.017350
O      11.68882     13.55799      2.50639        -0.082949      0.248231     -0.136610
O      11.64748     13.57464     14.99260         0.339455      0.502751     -0.069048
O      11.65352      1.85554      6.61951        -0.277308      0.073607      0.090176
O      11.71552     13.71783      6.72076        -0.418284     -0.359411     -0.101901
O      11.57056      1.99188     10.78454         0.212133     -0.220359      0.299300
O      11.69325     13.57103     10.87183         0.116168      0.375809      0.111291
O      11.70624      5.69981      2.49503         0.107233      0.562311     -0.380816
O      11.70393      5.88282     14.94799        -0.213711      0.102378     -0.336897
O      11.65832      5.84660      6.73316         0.582683     -0.086769     -0.315174
O      11.62305      5.87360     10.77168         0.432268     -0.071283     -0.115808
O      11.75669      9.87097      2.54105        -1.782762     -0.128740      0.335728
O      11.64187      9.67565     15.04026         0.052294      0.175816     -0.552180
O      11.55162      9.61479      6.67905         0.869734      0.607423      0.298868
O      11.61996      9.72823     10.71702         0.303091      0.559364      0.634404
O       1.88789      3.92632      2.48295        -0.040732     -0.841487      0.701577
O       1.82357      3.82969     15.11767         0.840935      0.044237     -0.251170
O       2.02517     15.58078      2.45126        -0.583041      0.395005      0.348560
O       1.95888     15.55938     15.05415         0.202799     -0.716224      0.431966
O      13.65395      3.90479      2.23701        -0.096602     -0.422942      0.615296
O      13.76199      3.87883     15.09439        -0.881994      0.636619     -0.650373
O      13.58293     15.57171      2.60599         0.444024     -0.005393     -0.718857
O      13.56399      0.02565     14.93968        -0.386862     -0.737400      0.307795
O       1.90776      3.99470      6.54286        -0.062435     -0.015928      0.188603
O       1.81573      0.09629      6.64029         0.034030     -1.325860      0.312054
O      13.56109      3.80103      6.72897         0.257891      0.774947     -0.507796
O      13.61962      0.00864      6.65057         0.355958     -0.368355      0.186879
O       1.76334      3.89444     10.80454         0.757147      0.572018     -0.016737
O       1.80829     15.59073     10.70565        -0.120450      0.323611      0.730414
O      13.55562      3.91044     10.80040         0.250654     -0.666189      0.383230
O      13.70200     15.59866     10.81496        -0.448194      0.110244      0.630017
O       2.11522      7.71899      2.37551        -0.357189      0.648448      0.170447
O       1.92078      7.79527     15.05458        -0.204731     -0.736819     -0.085617
O      13.57224      7.84191      2.50928        -0.235881     -0.211032     -0.323279
O      13.74726      7.82326     14.90030        -0.496654     -0.203215      0.041906
O       1.91895      7.87765      6.68552         0.069811     -0.184077      0.223094
O      13.56821      7.80760      6.65049         0.122295     -0.533069      0.021636
O       1.98218      7.69116     10.96641        -0.440354      0.072161     -0.414893
O      13.58395      7.78712     10.71283        -0.025043     -0.232499      0.536008
O       1.95490     11.66002      2.61277        -0.017842     -0.080819     -0.012023
O       1.90262     11.68360     14.87364         0.099332      0.110590      0.489991
O      13.69061     11.65309      2.50557         0.104120      1.041986      0.293500
O      13.60600     11.66978     14.87070         0.046473      0.523284     -0.001736
O       1.83787     11.71450      6.73962         0.465937     -0.485101     -0.324857
O      13.55724     11.71573      6.70561        -0.011617      0.055800      0.229168
O       1.89876     11.66896     10.88439        -0.271523      0.033617      0.149150
O      13.74236     11.64097     10.76456        -0.312068      0.559333      0.360406
O       5.93504      3.87311      2.51604         0.201348      0.451659      0.499376
O       5.80128      3.91549     14.92848        -0.073148     -0.460962     -0.078108
O       5.78592     15.60340      2.62009         0.002064     -0.003886     -0.181570
O       5.91589      0.08897     15.02570        -0.321121     -0.546257     -0.383151
O       5.85874      3.86319      6.71454        -0.409599      0.794353     -0.220234
O       5.75485     15.55657      6.63223        -0.136759      0.879396      0.493777
O       5.79674      3.88512     10.90389         0.032791     -0.451892     -0.361231
O       5.74353      0.01938     10.89405         0.342214     -0.255127     -0.392312
O       5.72752      7.81017      2.55358         0.759292     -0.615325     -0.069148
O       5.73806      7.77393     14.95948         0.123478     -0.233165     -0.115793
O       5.86907      7.95194      6.76965        -0.282175     -1.569473     -0.338002
O       5.76373      7.77703     10.82014         0.209125      0.728194     -0.019441
O       5.70340     11.73817      2.31057         0.683240     -0.530502      0.489561
O       5.90016     11.68827     15.11596         0.054915      0.542561     -0.444664
O       5.84258     11.79802      6.79713        -0.232261     -1.407434     -0.004637
O       5.78740     11.70840     10.80478        -0.183560      0.074925     -0.012876
O       9.69096      3.84424      2.51939        -0.257573      0.326664     -0.326979
O       9.61716      4.01156     15.01811         0.307558     -0.251752     -0.476941
O       9.77693     15.56562      2.51885        -0.411843     -0.171447     -0.289497
O       9.71870     15.58614     15.04488         0.197869      0.508581     -0.473276
O       9.70165      3.82009      6.63265        -0.174645      0.195037     -0.170908
O       9.69315     15.55770      6.63638        -0.020903      0.565371      0.011425
O       9.63912      3.94062     10.73129        -0.033107     -0.802080      0.088914
O       9.71100      0.03783     10.77118        -0.060038      0.090254      0.232135
O       9.81207      7.77511      2.53593         0.034141      1.004557      0.348257
O       9.68106      7.79087     15.04705         0.318200     -0.281266     -0.311527
O       9.65763      7.74593      6.60714        -0.383068      0.282020      0.233703
O       9.63315      7.84545     10.65745         0.217877      0.143620      0.273018
O       9.64804     11.77227      2.55403         0.230437     -1.050048      0.253395
O       9.73089     11.71550     14.96619        -0.245903     -0.487972     -0.047616
O       9.71453     11.68612      6.70494         0.008150      0.629093     -0.212294
O       9.55066     11.79256     10.98252         0.905938     -0.539277     -0.287010
