  # total energy = -7882.16715505 
CRSYTAL
PRIMVEC
    15.6080000000000005    0.0000000000000000    0.0000000000000000
     0.0000000000000000   15.6080000000000005    0.0000000000000000
     0.0000000000000000    0.0000000000000000   16.6239999999999988
PRESSURE
-0.602687 -0.371189 0.356793 -0.286575 0.253086 -0.012327
PRIMCOORD
320 1
Pb       3.87201      3.78856      4.08214         0.265767      0.850068      0.575188
Pb       3.80194      3.79611      0.05175         0.016145      0.125725     -0.165688
Pb       3.90782     15.53844      4.19449         0.180295     -0.071043      0.277076
Pb       3.87869     15.52765      0.04664         0.190384      0.394734     -0.293097
Pb      15.47184      3.82979      4.13105        -0.014894      0.091099     -0.452962
Pb      15.55503      3.89099     16.55039         0.305973     -0.453397      0.622763
Pb       0.09366      0.00547      4.16208        -0.353128     -0.225310     -0.203934
Pb       0.07194     15.56307     16.62172        -0.366656      0.528486      0.189221
Pb       3.95482      3.96545      8.34929        -0.045515     -0.157332     -0.660597
Pb       3.93780      0.16101      8.44745        -0.385846     -0.779798     -0.031058
Pb       0.01423      3.91188      8.23099        -0.542213      0.479262     -0.051072
Pb       0.09482      0.04344      8.28274        -0.389608     -0.127067     -0.060057
Pb       3.81593      4.00205     12.47232        -0.431665      0.033673     -0.375971
Pb       3.82877     15.50467     12.36187         0.250753      0.756536      0.682111
Pb      15.54858      3.77405     12.26854        -0.399681      0.135379      0.790146
Pb      15.53974     15.59172     12.40562         0.235783      0.436779      0.163301
Pb       3.79511      7.77849      4.15730         0.768437      0.232744     -0.272647
Pb       3.77001      7.77677     16.57084         0.483138     -0.346987      0.491308
Pb      15.58569      7.84189      4.02871        -0.292664     -0.020871      0.495728
Pb       0.00137      7.79991     16.61701        -0.023111     -0.126774     -0.041750
Pb       4.02085      7.81831      8.25987        -0.341672      0.295149      0.124942
Pb      15.60031      7.83208      8.27639        -0.201937     -0.153409     -0.086393
Pb       3.79776      7.85687     12.54374        -0.127747      0.096430     -0.201543
Pb      15.55385      7.75724     12.42761        -0.360881     -0.342850      0.139840
Pb       3.95032     11.70388      4.18339         0.083466     -0.830733      0.444358
Pb       3.88021     11.67338     16.51195        -0.040230     -0.202607      0.558622
Pb       0.03111     11.81695      4.15044        -0.352123     -0.398393      0.104959
Pb       0.06340     11.78258      0.08107        -0.237129     -0.385840     -0.219017
Pb       3.88118     11.65049      8.26695         0.036119      0.029672      0.462574
Pb      15.44913     11.71773      8.27227        -0.027365     -0.421242      0.263120
Pb       3.77183     11.82981     12.51391         0.566302     -0.639131      0.067417
Pb      15.52140     11.54803     12.37512        -0.420280      0.472533      0.067644
Pb       7.72559      3.89555      4.08666         0.499736      0.097720      0.612827
Pb       7.61214      3.69028     16.61491         0.358272      0.281588      0.509852
Pb       7.70501     15.59403      4.06637         0.622312     -0.389207      0.783273
Pb       7.76379     15.45132      0.02965         0.423027      0.494776     -0.571750
Pb       7.76434      3.93347      8.31699         0.538682     -0.045381     -0.390907
Pb       7.81647     15.53242      8.44558         0.579373      0.120676     -0.123243
Pb       7.77122      4.01345     12.48980         0.411984     -0.072971     -0.121119
Pb       7.88892      0.10823     12.51273        -0.113676     -0.209337     -0.302823
Pb       7.62357      7.79393      3.97187         0.490335     -0.132286      0.354547
Pb       7.87753      7.83359     16.53681        -0.609445     -0.638005      0.089703
Pb       7.85301      7.82168      8.42395         0.216849      0.246183     -0.813113
Pb       7.85240      7.77258     12.54547         0.262778      0.020690     -0.226211
Pb       7.73242     11.77582      4.05047         0.443608     -0.290168      0.671661
Pb       7.79626     11.54673     16.59773         0.094589      0.439952     -0.313851
Pb       7.62608     11.65448      8.33946         0.001631     -0.311233      0.136423
Pb       7.74149     11.63698     12.50974        -0.105135     -0.117911     -0.092310
Pb      11.68490      4.01511      4.22173        -0.048113     -0.344713     -0.556114
Pb      11.75834      3.84061     16.50664        -0.377860      0.342240      0.782143
Pb      11.79252      0.21118      4.21527        -0.342527     -0.578599     -0.193313
Pb      11.69311     15.56001      0.01494        -0.081670     -0.157580     -0.276830
Pb      11.65142      3.84547      8.24781         0.372679      0.349867     -0.120330
Pb      11.52075     15.45948      8.20741         0.579622      0.025124      0.319442
Pb      11.63841      3.83471     12.42787         0.329609      0.160006      0.122683
Pb      11.83102     15.51497     12.41586        -1.154373      0.290732      0.861969
Pb      11.75119      7.70920      4.01057        -0.255210      0.389252      0.005776
Pb      11.64640      7.73611     16.58400         0.416809      0.079913      0.082950
Pb      11.68885      7.84970      8.08569        -0.110325     -0.534587      1.030642
Pb      11.73141      7.69222     12.48942        -0.193681     -0.218198     -0.238589
Pb      11.58185     11.86081      4.28554         0.751917     -0.399740     -0.791731
Pb      11.87199     11.77909     16.59842         0.128674     -0.048489     -0.005768
Pb      11.69275     11.64827      8.22008         0.424887     -0.242080      0.189220
Pb      11.56796     11.61642     12.34576         0.694888      0.172913      0.677465
Ti       2.02728      1.92403      2.35830        -1.396373     -0.236650     -1.673123
Ti       1.93514      1.85488     14.79361        -0.821471      0.462787     -0.168425
Ti       2.17507     13.52898      2.26544        -1.945877      0.612493     -0.169261
Ti       1.96016     13.61732     14.64878         0.072604     -0.041897     -0.228545
Ti      13.65983      1.90219      2.21038         0.288419      0.384141      0.188186
Ti      13.56513      1.98526     14.77221         1.278002     -0.505636     -1.619979
Ti      13.71813     13.62400      2.25924        -0.476538      0.308487      1.088666
Ti      13.72029     13.72729     14.62682        -0.550088     -0.560752      0.421766
Ti       1.90500      2.06419      6.36715        -0.035556     -1.629176     -0.317758
Ti       1.94076     13.62514      6.45289         0.237199      0.474153      0.165175
Ti      13.60587      1.95861      6.31490         0.139854     -0.095770     -0.058351
Ti      13.69962     13.68356      6.30969        -0.281764     -0.343621      0.750223
Ti       1.99479      1.88813     10.54026        -1.261095      0.561999      0.596346
Ti       1.88397     13.57147     10.48744        -0.211819      0.635376      0.281933
Ti      13.56450      1.87736     10.38453         0.918755      0.230907      1.109840
Ti      13.59315     13.66482     10.54548         0.633922     -1.037484      0.421522
Ti       1.95162      5.80346      2.23803        -0.322960     -0.122702     -0.191748
Ti       1.90045      5.75111     14.68417         0.350837      0.042773     -0.542257
Ti      13.72805      5.86423      2.09724        -1.037257     -0.337241      0.967430
Ti      13.65158      5.92655     14.76025         0.160764     -0.279463     -1.434692
Ti       2.03773      5.92886      6.25389        -0.993054     -0.098471      1.029607
Ti      13.73602      5.85342      6.20760         0.203277     -0.292374      1.040674
Ti       1.90008      5.92940     10.45409        -0.416539     -0.980396      2.297809
Ti      13.65576      5.72510     10.41026        -0.422085      0.513371     -0.495211
Ti       1.92671      9.74011      2.25908         0.653230     -0.118122     -0.349557
Ti       1.92875      9.76752     14.72123        -0.398135     -0.818826     -0.348380
Ti      13.59781      9.81797      2.25649        -0.163672      0.318416      1.196706
Ti      13.73169      9.79562     14.66127        -0.598080     -0.242193     -0.047529
Ti       1.91506      9.72896      6.36434        -0.378735     -0.068882      0.425666
Ti      13.63905      9.69150      6.35187         0.047212      0.757361     -0.791797
Ti       1.86211      9.76376     10.54649         0.267526     -0.416562     -0.290016
Ti      13.53825      9.60481     10.58516         0.348246      0.823972     -1.153046
Ti       5.87843      1.84339      2.31288        -0.066715      0.420097     -1.706481
Ti       5.77912      1.93903     14.61175        -0.079949     -0.571546      0.416750
Ti       5.85643     13.50999      2.12149         0.558884      1.163918      0.292222
Ti       5.92944     13.66843     14.60788        -1.083544     -0.437174      0.230271
Ti       5.84644      1.88868      6.43831         0.426643      0.919333     -0.583613
Ti       5.84280     13.72997      6.52151         0.047781     -1.606771     -1.250549
Ti       5.90683      2.09758     10.56613         0.014457     -1.351252      0.428582
Ti       5.88451     13.63501     10.63752        -0.470448     -0.090828      0.646417
Ti       5.76590      5.73859      2.18596         0.495826      1.023033      0.302414
Ti       5.84022      5.81705     14.60215        -0.416690      0.382265      1.704018
Ti       5.95718      5.90532      6.37624        -0.229420     -0.168767     -0.625443
Ti       5.81066      5.91808     10.41425         0.232247      0.297818      1.327693
Ti       5.84172      9.76070      2.12386        -0.787760     -1.459774      1.654467
Ti       5.81780      9.75897     14.74875        -0.101278     -0.612608     -0.939311
Ti       5.79689      9.72045      6.35787         0.522769      0.311381     -0.444018
Ti       5.76472      9.71098     10.70117         0.184549      0.996170     -1.007447
Ti       9.77357      1.92329      2.24211         0.509718     -0.024752      0.721909
Ti       9.66079      1.96417     14.66934         0.208287     -0.719146     -0.588735
Ti       9.72999     13.69096      2.20653         1.103641      0.024826      0.455276
Ti       9.79454     13.56810     14.68274         0.410878      1.463230     -1.063605
Ti       9.72191      1.87926      6.45532         0.232774      0.066896     -1.050387
Ti       9.73222     13.48429      6.36290        -0.487270      1.676586      0.202934
Ti       9.75974      1.94228     10.53534         0.093307     -0.594844     -0.161406
Ti       9.71736     13.60023     10.62984         0.075258      0.726692      0.087010
Ti       9.74465      5.75393      2.14104         0.551373      0.824379      0.620350
Ti       9.71628      5.78247     14.74818         0.147165      0.139048     -0.715414
Ti       9.84982      5.79716      6.37162        -1.011519      0.314822     -0.726951
Ti       9.72949      5.82776     10.53905         0.876316      0.386704     -0.825854
Ti       9.76929      9.81075      2.11948         0.560971     -0.211795      1.978867
Ti       9.82397      9.75086     14.70403         0.485857     -0.519141     -0.403859
Ti       9.66450      9.73820      6.22506         0.014581     -0.800132      0.609558
Ti       9.65086      9.72927     10.54089         0.454886     -0.825265     -0.724375
O       1.93552      1.95874      0.53303         0.541662     -0.466483      0.770950
O       1.91240      1.69256     13.04541         0.011386      0.624924     -1.012771
O       2.09896     13.42747      0.48222         0.171070      0.348584     -0.030925
O       1.90661     13.64901     12.88098         0.042605     -0.005560      0.719625
O      13.65067      1.92610      0.42342        -0.272861     -0.297291     -0.369492
O      13.68393      2.02516     12.97180        -0.339174     -0.213070      0.648161
O      13.56294     13.66458      0.50545         0.138454     -0.091038     -1.068759
O      13.64173     13.72164     12.87666         0.201276     -0.192753     -0.204513
O       1.91325      1.88391      4.55412         0.526570      0.009859      0.445090
O       1.91568     13.64024      4.65120         0.472754     -0.028729     -0.037623
O      13.66540      1.95877      4.47629         0.247400      0.263684      0.813975
O      13.74492     13.57612      4.58935         0.258499      0.222397     -1.324083
O       1.86850      1.94593      8.77594         0.168585     -0.091816     -0.606244
O       2.01989     13.53632      8.71822        -0.234972      0.336665      0.101658
O      13.62366      1.81084      8.65445         0.130405      0.166579     -1.121226
O      13.57220     13.65839      8.81045        -0.117894      0.076471     -1.027800
O       1.88249      5.72531      0.47846         0.091739      0.221057     -0.559590
O       2.15436      5.74570     12.86322        -0.761065      0.138298      0.877403
O      13.69458      5.97378      0.33588         0.007557     -0.269856     -0.558568
O      13.65409      5.86246     12.95577        -0.412431      0.037598      0.355098
O       2.03293      5.99555      4.51907         0.044825     -0.487021     -0.843230
O      13.62256      5.84825      4.41199         0.099264     -0.152900      0.496134
O       1.77593      5.91663      8.76033         0.417914     -0.452586     -1.879430
O      13.78004      5.76984      8.61925        -0.196382      0.109064      0.837750
O       1.98168      9.84100      0.45801        -0.463442     -0.348598      0.215722
O       1.90288      9.64520     12.91904         0.133386     -0.020477      0.365503
O      13.65710      9.88621      0.52124         0.133164      0.043154     -1.267761
O      13.67683      9.67202     12.84186         0.177591      0.217701      0.678477
O       1.98404      9.61794      4.60678         0.155859      0.279142     -0.453282
O      13.65127      9.70562      4.59514         0.046205      0.056507     -0.012016
O       1.88078      9.75128      8.78054         0.218725     -0.268208      0.086951
O      13.52288      9.73798      8.76944         0.107882     -0.374120      0.159627
O       5.84500      1.95289      0.43136         0.096086     -0.402523      1.600464
O       5.87898      1.99787     12.83001        -0.060205      0.212479      0.195967
O       5.74773     13.65071      0.36837         0.051286     -0.132430     -0.276248
O       5.88604     13.44198     12.83584         0.148463      0.707153      0.772805
O       5.81378      1.81784      4.58261         0.085485      0.070031      1.341838
O       5.96864     13.64855      4.66929        -0.310806     -0.012337      1.256139
O       5.93845      1.98096      8.77067        -0.561188     -0.044005      0.129663
O       5.75186     13.44856      8.88265         0.168160      0.359610     -0.859971
O       5.98264      5.64065      0.46549        -0.162308      0.169880     -0.653543
O       5.90902      5.84729     12.82504        -0.568726     -0.102070      0.168672
O       5.78100      5.88653      4.59128         0.357058     -0.289756      0.512242
O       5.93374      5.91190      8.64711        -0.358684     -0.536614     -0.329981
O       5.85526      9.59642      0.40379         0.228444      0.608831     -1.058483
O       5.78939      9.67124     12.92179         0.065449     -0.564060      1.000121
O       5.76690      9.76056      4.58692         0.046919      0.135181     -0.362784
O       5.87131      9.77633      8.88017        -0.182803     -0.285020     -0.324442
O       9.70038      1.86998      0.50040         0.130859     -0.179121     -0.883703
O       9.70758      2.12133     12.85541        -0.287603     -0.633044      0.538731
O       9.78823     13.81548      0.45381        -0.029716     -0.227248     -0.790174
O       9.86269     13.56903     12.88512        -0.714137     -0.170384      0.244060
O       9.86209      1.92564      4.67708        -0.328148     -0.103158     -0.401138
O       9.61775     13.60456      4.60379        -0.004113     -0.529605     -0.327977
O       9.75860      1.72140      8.73769         0.203290      0.389288      0.224481
O       9.82744     13.71538      8.85658         0.044125     -0.326248     -0.433549
O       9.87975      5.93100      0.35586        -0.783957     -0.382533      0.185321
O       9.84100      5.79283     12.93446        -0.214344     -0.386535     -0.262872
O       9.88099      5.64455      4.56953        -0.077341      0.199141      0.509116
O       9.71815      5.88683      8.74131        -0.096505     -0.188407     -0.024515
O       9.70012      9.64657      0.36513         0.329649      0.169155     -0.719058
O       9.77030      9.73403     12.93147        -0.113347      0.057412      0.199373
O       9.92684      9.99640      4.49675        -1.163104     -0.547268      0.582636
O       9.66598      9.66496      8.71963        -0.266865      0.003008      0.947997
O       3.96151      2.00861      2.62920        -0.040162     -0.523340     -0.276574
O       3.80628      1.96188     15.03698         1.833052      0.143009      0.080725
O       4.05771     13.56300      2.72422        -0.955794     -0.406234     -0.430211
O       3.90880     13.34052     14.93372        -0.246048      1.188039     -0.506054
O       0.10206      1.75919      2.59408        -0.338162      0.335361     -0.157347
O       0.00889      1.83710     15.14338        -0.562699      0.059465      0.020344
O       0.08461     13.60129      2.45457         0.309067      0.461395      0.198677
O       0.02730     13.58650     14.97169         0.376369      0.452531      0.433753
O       3.86476      1.81089      6.86167         0.503961      0.722115     -0.675601
O       3.91063     13.67061      6.78758        -0.235108      0.138494     -0.434513
O      15.57195      2.08115      6.65923         0.440416     -0.539181     -0.069865
O       0.00898     13.62726      6.81021         0.081134      0.119403     -0.257106
O       3.84514      1.97655     10.78860         1.024577     -0.054265     -0.056365
O       3.86518     13.63075     11.08642         0.009223     -0.753139     -1.363619
O      15.55212      1.86934     10.89929         0.201211     -0.538180     -0.546191
O      15.57440     13.80203     10.79716         0.088793     -0.486850     -0.147011
O       3.87667      5.75199      2.40289        -0.030436     -0.316045      0.401034
O       3.87671      5.68039     14.97437         0.474068     -0.152605      0.026999
O      15.54795      5.89679      2.47275         1.311528      0.080320      0.302274
O      15.57550      5.96646     14.93870         1.003492     -0.715630      0.255836
O       3.93057      6.02229      6.70493        -0.333855     -0.944078      0.140638
O       0.00565      5.84607      6.52941         0.361032     -0.437863     -0.044156
O       3.87674      5.80477     10.74247         0.026684     -0.096896     -0.286633
O      15.50556      5.84666     10.88564         0.800485     -0.432408     -0.207553
O       3.94805      9.89611      2.45660        -0.144617     -0.214628      0.367356
O       3.88095      9.72936     15.10370         0.035105     -0.263557     -0.548388
O       0.09510      9.83395      2.73407        -0.559052     -0.617526     -1.030336
O       0.02550      9.69882     15.06498        -0.147945      0.096461     -0.114022
O       3.83673      9.59948      6.67790         0.200637      0.080232      0.250049
O      15.51937      9.76604      6.77141         0.738553     -0.276700     -0.262608
O       3.84950      9.77671     10.95560        -0.611739     -0.527143     -0.221717
O      15.57327      9.67701     10.80638        -0.204666      0.022262      0.376740
O       7.83105      1.88096      2.64907        -0.607034      0.531534     -0.470055
O       7.77231      1.83083     15.01931        -0.436797     -0.048214     -0.206776
O       7.71557     13.66783      2.39944         1.136746      0.152491      0.258922
O       7.74851     13.56860     15.03097         0.288107      0.158271      0.010374
O       7.87299      1.92056      6.72267        -1.838875     -0.154587     -0.005436
O       7.77652     13.50823      6.82305        -0.136794      0.324496      0.089972
O       7.81568      1.84767     10.79689        -0.364149      0.399143      0.237613
O       7.77141     13.55053     10.80079         0.688427      0.162470      0.283011
O       7.79786      5.76213      2.67275         0.631699      0.305448     -0.871935
O       7.81002      5.89366     14.85013        -0.533464     -0.294090      0.274530
O       7.84674      5.73297      6.71346        -0.593618     -0.101221     -0.366446
O       7.82577      5.81494     10.83956        -0.726660      0.295841      0.054346
O       7.80943      9.74401      2.42297         0.401127     -0.362560      0.159363
O       7.76654      9.65605     15.02585         0.538074      0.035871     -0.083128
O       7.69310      9.63867      6.54854         1.293825      0.817707      0.284534
O       7.76257      9.67098     11.00030         0.602859     -0.147969     -0.243253
O      11.76803      1.92063      2.55043        -0.485216     -0.092337     -0.315180
O      11.61170      2.02600     14.91917         0.378753     -0.535638      0.503766
O      11.71538     13.58665      2.57695        -0.449225      0.277023     -0.090715
O      11.72246     13.58120     14.94413         0.235507      0.377694      0.550273
O      11.74005      2.00179      6.55754         0.000753     -0.512439      0.646745
O      11.75220     13.56415      6.53758        -1.264021     -0.083437      0.516656
O      11.70716      1.89681     10.79632        -0.749742      0.335574      0.111682
O      11.68477     13.58680     10.94395         0.002918     -0.066059     -0.325506
O      11.78789      5.81533      2.39262        -0.753901     -0.048112      0.297575
O      11.74759      5.77210     14.99444        -0.649329      0.272101      0.264009
O      11.73154      5.78908      6.66308        -0.226029      0.134943     -0.118912
O      11.68796      5.75805     10.72333         0.239216     -0.099349      0.477514
O      11.71217      9.90590      2.63908        -0.320189     -0.392288     -1.027605
O      11.77367      9.63646     14.95562        -0.694373      0.788307      0.138177
O      11.63483      9.63830      6.70277        -0.018631      0.883142     -0.480345
O      11.63997      9.70167     10.82291         0.073970      0.201116      0.219659
O       1.90009      3.85726      2.56625         0.220839     -0.069128      0.499579
O       1.84357      3.79652     15.16448         0.242725      1.119408     -0.927970
O       2.28271     15.48780      2.49213        -0.602183      0.140722      0.097414
O       2.02275     15.55359     15.17464        -0.007891     -1.507259     -0.091198
O      13.78134      3.88750      2.41065         0.082355     -0.187512      0.047826
O      13.66617      3.88389     15.06011         0.109074      0.295834      0.054216
O      13.68000      0.00584      2.59700         0.051439     -0.616298     -0.135194
O      13.67942      0.00381     14.98025        -0.376474     -0.347362      0.320571
O       1.97260      3.90635      6.50294         0.509264      0.611511      0.683804
O       1.84094      0.03932      6.71592         0.218946     -0.540445      0.024135
O      13.62682      3.93960      6.61258         0.157511     -0.628016     -0.113050
O      13.61056     15.58916      6.42483         0.420676      0.582400      0.614799
O       1.81048      3.82782     10.85090         0.766061      0.168646     -0.157209
O       2.00027     15.48191     10.85160        -0.084259      1.259405     -0.476380
O      13.64614      3.79044     10.68511         0.107626      0.538613      0.230813
O      13.50598     15.60798     10.91268         0.780608     -0.248045     -0.574349
O       2.05526      7.72267      2.47452        -0.365747      1.234239     -0.044805
O       1.99836      7.68203     15.03340        -0.011139      0.413238     -0.132435
O      13.66516      7.90483      2.48216         0.062082     -0.778553     -0.091217
O      13.72476      7.87813     15.10517        -0.394781     -0.318299     -0.312054
O       1.83922      7.76637      6.66031         0.148168      0.381751      0.293937
O      13.68460      7.74576      6.56626        -0.299832      0.209455      0.355952
O       1.73854      7.75366     10.84040         1.219593      0.365124      0.009035
O      13.61926      7.70493     10.85408        -0.140499      0.318303     -0.173575
O       1.93817     11.64249      2.61396         0.770993      0.862845      0.237683
O       1.90735     11.59888     14.94073         0.017683      1.153129      0.132149
O      13.76031     11.72745      2.59206        -0.039870      0.238155     -0.081795
O      13.73373     11.74355     15.01322        -0.232350     -0.622417     -0.016036
O       1.93010     11.62415      6.70780         0.204619      0.682507     -0.342145
O      13.66168     11.69844      6.58394        -0.288589     -0.376690      0.783409
O       1.77255     11.69275     10.88285         0.537131     -0.221613     -0.023489
O      13.75153     11.65584     10.76658        -0.427325      0.336778      0.509688
O       5.84027      3.87548      2.58582         0.230430     -1.016473      0.256677
O       5.94991      3.77372     15.07115        -0.556950      1.080445     -1.057811
O       5.86028     15.54832      2.53436        -0.442584      0.360065     -0.238994
O       5.69282     15.58035     14.87376         0.357970     -0.642454      0.144631
O       5.77561      3.79477      6.70194        -0.005000      0.368161      0.106245
O       5.92487     15.56038      6.91786        -0.277544      0.561821     -0.369985
O       5.88974      3.96689     10.76272        -0.162100     -0.518888     -0.011878
O       5.88958     15.56811     10.91781        -0.376469     -0.035025     -0.354658
O       5.74351      7.73422      2.54919         0.499469      0.591789     -0.332123
O       5.74599      7.66959     15.16963         0.261727      0.072212     -1.022788
O       5.93880      7.78046      6.67613        -0.377486     -0.204930      0.297118
O       5.80522      7.77309     10.71193         0.029849     -0.561843      0.633223
O       6.03209     11.66823      2.49584        -0.891535     -0.039235     -0.414406
O       5.93527     11.61308     14.96785        -0.125892     -0.033522      0.307780
O       5.71386     11.61881      6.78287         0.377567      0.409374     -0.316383
O       5.89242     11.58871     10.99890        -0.272712      0.772900     -0.205238
O       9.84840      3.84731      2.52312        -0.479899      0.466530     -0.188970
O       9.63287      3.84215     15.00494         0.177431      0.327160      0.251667
O       9.74719      0.00261      2.58390         0.012842     -0.342874      0.036935
O       9.61841     15.49190     14.90971         0.476203      0.994749      0.309893
O       9.78913      3.79323      6.76858        -0.092284      0.873586      0.294651
O       9.71940     15.46939      6.73182         0.041396      0.153578     -0.135531
O       9.69851      3.84049     10.78225         0.121796      0.075724     -0.096996
O       9.74760     15.55232     10.98866        -0.138792      0.225933     -0.196831
O       9.88428      7.73965      2.57738        -0.712838      0.368708     -0.591507
O       9.76157      7.74461     14.83200         0.080147      0.529498      0.835918
O       9.64393      7.74711      6.51714         0.475642      0.164035      0.192992
O       9.78406      7.77195     10.86343        -0.441182     -0.060594      0.308818
O       9.72484     11.74306      2.36379        -0.424409     -0.322515      0.065242
O       9.75823     11.71700     14.96664        -0.288219     -1.578532      0.667565
O       9.68295     11.63408      6.77834         0.311783     -0.199882     -0.373632
O       9.71175     11.64120     10.92408        -0.062468     -0.001591     -0.500977
