  # total energy = -7879.37955441 
CRSYTAL
PRIMVEC
    15.6080000000000005    0.0000000000000000    0.0000000000000000
     0.0000000000000000   15.6080000000000005    0.0000000000000000
     0.0000000000000000    0.0000000000000000   16.6239999999999988
PRESSURE
-0.54192 -0.563705 -0.341812 0.017749 -0.146156 -0.111504
PRIMCOORD
320 1
Pb       3.75995      3.83528      4.11028        -0.109941     -0.381729      0.379930
Pb       3.74625      3.74723     16.61393        -0.089553     -0.090644      0.128108
Pb       3.93359     15.43044      4.31040        -0.366817      0.561028     -0.214237
Pb       3.99224     15.59070      0.08763        -0.389854     -0.156523      0.008810
Pb      15.56317      3.86905      4.14284         0.073248      0.108950      0.249507
Pb      15.57097      3.97207     16.59310         0.088451     -0.712918      0.194528
Pb       0.11011     15.59938      4.29281         0.202294      0.241463     -0.781224
Pb      15.60595     15.54481      0.02648        -0.028298      0.261199      0.074497
Pb       4.02869      4.05521      8.32826         0.069631     -0.575904     -0.524955
Pb       3.88214      0.06422      8.49926         0.222063     -0.497262     -0.594256
Pb       0.11717      3.94720      8.23289        -0.532238     -0.525168      0.258290
Pb       0.02243      0.08856      8.33811        -0.028624     -0.371402      0.345499
Pb       3.95959      3.92549     12.29877        -0.519768     -0.050992      1.139822
Pb       3.92213      0.10386     12.32502        -0.496690     -0.313127      0.121993
Pb      15.49495      3.76058     12.28848         0.475318      0.403930      0.359408
Pb      15.41887     15.58034     12.33745         1.479974     -0.464664     -0.223321
Pb       3.92216      7.66787      4.25404         0.065640      0.650430     -0.322980
Pb       3.84457      7.83185      0.03587        -0.010671      0.399996     -0.770335
Pb      15.52413      7.75740      4.10951        -0.315053     -0.295629      0.261355
Pb       0.02498      7.79191      0.02574        -0.255520     -0.138044     -0.200760
Pb       3.97638      7.86812      8.25150        -0.314957     -0.706368      0.238659
Pb       0.19414      7.87052      8.02041        -1.068685      0.024351      0.901244
Pb       3.74840      7.82460     12.50105         0.534074     -0.224986     -0.235636
Pb       0.03675      7.74284     12.40102        -0.020554     -0.006441     -0.492740
Pb       4.00588     11.60732      4.28722        -0.407625      0.116741     -0.070246
Pb       3.91661     11.63569     16.58870        -0.168858      0.165563     -0.265570
Pb       0.06897     11.71183      4.24987         0.070079      0.122766     -0.671869
Pb       0.03961     11.63697     16.62373        -0.261012      0.657391     -0.082267
Pb       3.88835     11.45799      8.30049         0.421303      1.656721      0.152251
Pb      15.53080     11.72754      8.39798         0.112587     -0.067505     -0.280493
Pb       3.78158     11.75143     12.62215        -0.056017      0.172803     -0.682756
Pb      15.37734     11.69737     12.42923         0.459597      0.092343      0.079526
Pb       7.83755      4.07753      4.12630         0.114843     -0.791568     -0.187109
Pb       7.70083      3.69770      0.11191         0.247110      0.273205     -0.354327
Pb       7.83177      0.04713      4.14616         0.161323     -0.179407      0.076264
Pb       7.80902     15.39068     16.55935         0.307205      0.524327      0.898350
Pb       7.84743      3.99167      8.08316        -0.004222     -0.879493      0.628214
Pb       7.71647     15.56488      8.39976         0.189731     -0.038031     -0.130332
Pb       7.77108      4.15691     12.46822        -0.099888     -0.345516      0.563349
Pb       7.80723      0.10725     12.45313         0.054934     -0.434945     -0.858480
Pb       7.70011      7.76070      4.08249        -0.079435      0.410451     -0.358587
Pb       7.91811      7.68927      0.01773        -0.658166      0.244274     -0.678803
Pb       7.70665      7.78844      8.42138         0.228234     -0.150938     -0.363491
Pb       7.70564      7.95410     12.58211         0.008125     -0.948974      0.356003
Pb       7.74375     11.66858      4.13370        -0.160382      0.099432      0.119264
Pb       7.90444     11.50165      0.03893        -0.588745      0.419028     -0.005802
Pb       7.69093     11.58090      8.44259         0.020983      0.686373     -0.727087
Pb       7.69986     11.74287     12.55841         0.385676      0.137911     -0.419467
Pb      11.56368      4.02119      3.99656         0.179469     -0.527966      0.189353
Pb      11.64166      3.67748     16.39275         0.253865     -0.040741      0.954666
Pb      11.96806      0.20144      4.19699        -0.974839     -0.492941     -0.307716
Pb      11.77382     15.57425      0.04851        -0.428572     -0.083925     -0.049495
Pb      11.71401      3.64630      8.06612        -0.377963      0.677954      1.510351
Pb      11.75462     15.38296      8.25280        -0.623017      1.028149      0.418711
Pb      11.54706      3.94819     12.38546         0.151347      0.038526     -0.434375
Pb      11.86874      0.02413     12.56261        -0.730114     -0.301145     -0.584116
Pb      11.66531      7.96537      4.11919         0.525870     -0.488423     -0.185538
Pb      11.68231      7.73417     16.55301         0.239652     -0.020936      0.242138
Pb      11.72054      7.76125      8.18113         0.321973      0.283084      0.482119
Pb      11.91320      7.51104     12.39976        -0.662568      0.577822     -0.063769
Pb      11.50878     12.06661      4.12243         1.186474     -0.276369      0.481146
Pb      11.72927     11.76627      0.02564         0.217538      0.163085      0.215297
Pb      11.57126     11.49923      8.09667         0.109203      0.092277      0.370349
Pb      11.62705     11.54309     12.49644        -0.256578      0.377683     -0.280051
Ti       1.93538      1.96166      2.14791        -0.652895     -0.562492      1.166277
Ti       1.94193      1.95636     14.47675        -0.589507      0.249578     -0.494935
Ti       1.91397     13.66824      2.20886        -0.482204      0.041276      1.197047
Ti       1.88355     13.83456     14.62156         0.008237     -1.458958     -0.037410
Ti      13.67656      2.02276      2.19264        -0.114590     -0.119944     -0.741823
Ti      13.73349      1.82385     14.60254         0.003179      0.640497      1.261499
Ti      13.67521     13.69894      2.26868        -0.829524     -0.301319     -0.828220
Ti      13.61806     13.60102     14.72100         0.164765     -0.382775      0.255952
Ti       2.12084      1.85712      6.43283        -0.131945      0.633305     -0.241408
Ti       1.92420     13.62371      6.46025         1.391185      0.152370      0.166878
Ti      13.72774      1.87714      6.44828         0.137869      0.068495      0.460487
Ti      13.65242     13.58664      6.40053        -0.350089      0.402758     -0.189459
Ti       1.93753      1.99848     10.44341        -0.390181     -0.919288      0.377163
Ti       1.86073     13.60202     10.47464         0.654225      1.115034     -0.264446
Ti      13.59187      1.94365     10.48163         0.420986     -0.026478     -1.812925
Ti      13.53860     13.55376     10.40412         0.175900      0.884436     -0.031646
Ti       1.94010      5.90020      2.25031        -1.528920     -1.145143     -0.248408
Ti       1.82040      5.86813     14.66379         0.758732     -0.255954      0.231764
Ti      13.61040      5.85070      2.26034        -0.051466     -0.334459      0.289981
Ti      13.58385      5.71785     14.68359         0.819947     -0.247341     -0.568585
Ti       1.91718      5.72701      6.39061         0.632936      0.130895     -0.432117
Ti      13.50418      5.79985      6.41923         1.137798      0.295616     -0.619589
Ti       1.94631      5.87515     10.45593         0.523834     -0.097245     -0.375465
Ti      13.72267      5.85311     10.41144        -1.046636     -0.771881     -0.606970
Ti       1.89031      9.71782      2.27287         0.969226      1.081877      0.088639
Ti       1.84037      9.83429     14.66350         0.746385     -0.639811     -0.165846
Ti      13.72524      9.82295      2.13930        -1.421881     -0.016083      1.259408
Ti      13.63658      9.66447     14.69718        -1.056746      0.840771      0.603125
Ti       2.02074      9.79635      6.32905        -0.337312      0.229040     -0.856253
Ti      13.71818      9.77335      6.19131        -0.619850     -0.371145      0.537369
Ti       1.99677      9.77521     10.45545        -0.236734      0.004311      0.063695
Ti      13.64758      9.76692     10.45404        -0.148651     -0.890602     -0.484519
Ti       5.76499      1.94305      2.26728         0.234358     -0.295090     -0.173124
Ti       5.83885      1.85998     14.71620        -0.510873      0.780309     -0.694917
Ti       5.72287     13.69238      2.25087         0.407280     -0.330009      0.051008
Ti       5.77240     13.66939     14.62685        -0.121660     -1.208110      1.565575
Ti       5.94498      1.82845      6.32059        -1.321975      0.934204      1.515291
Ti       5.85999     13.66454      6.43610        -1.004458     -0.732604      0.928664
Ti       5.86276      1.98149     10.46741        -0.257322     -0.538882     -0.575188
Ti       5.75757     13.59939     10.49381         0.621682      0.545209     -1.449042
Ti       5.64934      5.76909      2.08670         1.383959      0.346475      0.818896
Ti       5.66482      5.73238     14.86587         1.705588      0.926401     -2.059114
Ti       5.90112      5.84927      6.22977        -1.713996     -0.607135      0.850074
Ti       5.82602      5.86742     10.58648        -0.769964      0.610395      1.319173
Ti       5.78485      9.75637      2.15830         0.182439     -0.040579      0.511837
Ti       5.78437      9.67632     14.66575         0.165920      0.064108      0.959940
Ti       5.92912      9.68481      6.40211        -0.044679      1.006972     -0.121330
Ti       5.88007      9.71856     10.58754        -1.018376      0.003191      0.317195
Ti       9.64866      1.95618      2.23504         1.148100     -0.114658     -0.924704
Ti       9.70047      1.81930     14.66755         0.549121      0.664489      1.803017
Ti       9.59327     13.70613      2.22488         1.939623      0.282145     -1.223935
Ti       9.65767     13.57651     14.69366         1.117571      0.583068      0.337822
Ti       9.73163      1.97563      6.26647        -0.205922     -0.730052     -0.016127
Ti       9.65172     13.70647      6.49404        -0.485582      0.591439     -0.514138
Ti       9.70559      1.89169     10.46404         0.043534      0.111388      0.058709
Ti       9.73066     13.54563     10.50268        -0.561965      0.488010      0.451600
Ti       9.66253      5.89769      2.15411         0.863098     -0.727006     -0.046862
Ti       9.70518      5.78632     14.76811        -1.216726     -0.283974     -0.707652
Ti       9.71357      5.96211      6.33264         0.260610     -1.833560     -0.181953
Ti       9.63745      5.84250     10.41706         1.201936     -0.478312      0.230117
Ti       9.77817      9.76652      2.23432        -0.322246     -0.003324     -1.081149
Ti       9.75444      9.78404     14.67881        -0.038072     -0.836318     -0.369810
Ti       9.66897      9.71236      6.27914         0.112382      0.261043      1.913920
Ti       9.80426      9.59315     10.56663         0.539757      1.011275      0.199794
O       1.94604      1.88718      0.39082        -0.067803      0.019396     -0.581571
O       1.86863      1.89613     12.64566         0.171084      0.507143      1.733618
O       1.82371     13.87138      0.48663         0.097906     -0.144237     -1.378903
O       1.96806     13.59724     12.85138        -0.007944     -0.067247      0.308069
O      13.79370      2.09205      0.37378        -0.433385     -0.505411      1.009778
O      13.86409      1.68563     12.81547        -1.041551      0.369872     -0.925987
O      13.61120     13.71985      0.44513         0.502581     -0.286733      0.414401
O      13.67814     13.73389     12.90479        -0.260397     -0.281990     -0.265482
O       1.92788      2.01387      4.64175         0.257169     -0.229690      0.299939
O       1.89143     13.65690      4.61123         0.241976     -0.026088      0.583943
O      13.65099      1.77583      4.68106         0.235326      0.362402     -0.666135
O      13.50377     13.70222      4.61448         0.443683      0.055693     -0.318444
O       2.11553      1.92270      8.65411        -0.499392      0.048819     -0.346102
O       1.87253     13.70321      8.65454        -0.269869     -0.479558      0.979382
O      13.50482      1.87308      8.62877         0.290313      0.399421      0.969186
O      13.69564     13.48694      8.60949        -0.413511      0.152804      0.337967
O       1.81410      5.86166      0.46490         0.396303      0.600398      0.001592
O       1.88213      5.79520     12.90662        -0.527431      0.643637     -0.408825
O      13.63977      5.70735      0.50697         0.198580      0.201259     -0.588901
O      13.81345      5.74389     12.89085        -0.697153      0.686593      0.092731
O       1.86207      5.64698      4.58762         0.472728      0.929945      0.165328
O      13.58274      5.77080      4.62730        -0.110933      0.229735      0.441266
O       2.15410      5.92050      8.66519        -0.686727     -0.320947      0.328212
O      13.45862      5.79141      8.66032         0.782395      0.352120      0.014178
O       2.01496      9.69521      0.47099        -0.471608     -0.003781      0.129999
O       1.82366      9.67369     12.86552         0.166252      0.441496     -0.024691
O      13.70063      9.75847      0.38004        -0.041255     -0.298555     -0.346971
O      13.41386      9.99026     12.93182         1.023919     -1.029038     -0.078363
O       1.95425      9.85392      4.49914         0.085531      0.055342      0.967528
O      13.59033      9.87571      4.44818         0.186601     -0.707596      0.250697
O       1.96706      9.73139      8.64943        -0.097154      0.419897      0.225353
O      13.61754      9.74662      8.68515         0.010429      0.182094     -0.218465
O       5.79205      2.11466      0.45219        -0.336964     -1.013581      0.447024
O       5.76347      1.68137     12.89806         0.603955      0.647009      0.864631
O       5.74057     13.74723      0.46602         0.063219     -0.442559      0.590185
O       5.78692     13.64899     12.87345        -0.039587      0.220949     -0.146511
O       5.79699      1.96446      4.58622         0.240140     -0.059873     -1.449733
O       5.70625     13.78342      4.62813         0.168736     -0.348120     -0.560996
O       5.75319      1.88464      8.67689         0.561674      0.504011      0.891188
O       5.95439     13.60608      8.57794        -0.062695     -0.273359      2.512900
O       5.68332      5.81732      0.31063        -0.112000      0.271454      0.981580
O       5.88241      5.73980     12.95647        -0.189414     -0.098198      0.640299
O       5.78606      5.82296      4.45119         0.272166      0.194180     -0.060904
O       5.76301      6.01894      8.86431        -0.034330     -0.402115     -1.447348
O       5.62608      9.77778      0.37152         0.410301      0.233368      0.644929
O       5.75455      9.77039     12.89958         0.095299     -0.214330     -1.278527
O       6.00650      9.66802      4.64069        -0.280410      0.017700     -0.646957
O       5.87654      9.67987      8.75320         0.255814     -0.033946      0.663729
O       9.79808      1.83664      0.43706        -0.324059      0.582176     -0.104987
O       9.75751      1.81843     12.95358        -0.198006     -0.166716     -1.848284
O       9.68687     13.49482      0.39071        -0.219615      0.350996      1.023401
O       9.65182     13.56033     12.92990         0.316546      0.380297     -0.137117
O       9.59520      2.01728      4.47160         0.118958     -0.326628      0.112453
O       9.60160     13.72104      4.70951         0.422453     -0.419805     -1.003632
O       9.68444      1.99140      8.72413         0.061479     -0.052738     -0.094792
O       9.71329     13.72217      8.72516        -0.188867     -0.584840     -0.632851
O       9.75560      5.93538      0.35358        -0.235572      0.064137     -0.081485
O       9.69896      5.79630     12.96511         0.089059     -0.240064     -0.228738
O       9.65089      5.82357      4.52526        -0.150912      0.278925      0.067813
O       9.76005      5.93004      8.65858        -0.602947     -0.215557      0.285950
O       9.49933      9.73237      0.35041         1.021212      0.023384      1.102196
O       9.80511      9.92878     12.85341        -0.032839     -0.652511      0.698988
O       9.51571      9.65951      4.56024         0.247690     -0.200013     -1.291238
O       9.84311      9.69506      8.77386        -0.468204     -0.332311      0.542116
O       3.81089      1.83210      2.55476         1.045280      0.262789     -0.130112
O       3.83104      1.80194     14.86258         0.054976      0.122943      0.344204
O       3.82215     13.86634      2.53700         0.241012     -0.618730     -0.169031
O       3.81533     13.76927     15.16152         0.235130      0.184751     -0.974293
O      15.57544      2.07489      2.58182        -0.039306     -0.040283     -0.250546
O      15.58851      2.05208     14.85025         0.741467      0.047760      0.257324
O      15.54144     13.62191      2.59532        -0.030780      0.026760      0.163993
O      15.57527     13.49032     14.96864         0.415666      0.246810      0.230821
O       3.99371      1.96899      6.71862        -0.690256      0.218368     -0.425097
O       3.93872     13.56627      6.90130        -0.366072      0.295999     -0.959524
O       0.04528      1.85101      6.74639        -0.513292      0.126958     -0.097811
O      15.60047     13.69401      6.68012        -0.258835     -0.488725     -0.259714
O       3.89499      1.90283     10.81154        -0.015077      0.007287     -0.130855
O       3.87711     13.74811     10.84542         0.042653     -0.363461     -0.407531
O      15.58232      2.04379     10.63919        -0.301272     -0.318235     -0.057979
O      15.59760     13.36448     10.75623        -0.654506      0.456071     -0.054587
O       3.82362      5.95274      2.58624         0.289490      0.351877     -0.331454
O       3.83750      6.00994     14.90626        -1.035734      0.061383      0.381931
O      15.59592      5.78037      2.64406        -0.248984      0.068932     -0.302904
O      15.53212      5.77990     15.06939         0.324025      0.252068     -0.167873
O       3.86550      5.73484      6.67769         0.380959      0.594584     -0.642117
O      15.57005      5.83873      6.79853         0.515500      0.132607     -0.427723
O       3.86141      5.85176     11.01523        -0.443302      0.014527     -0.617045
O       0.03097      5.84158     10.65940         0.006143      0.029281      0.223774
O       3.85225      9.76231      2.59971        -0.041702     -0.225648      0.066186
O       3.88271      9.71888     14.93613        -1.194155     -0.223051      0.121633
O      15.55436      9.86118      2.56343         0.708611     -0.376185     -0.091168
O      15.49573      9.77284     15.06168         0.950093      0.271857     -0.499674
O       3.99674      9.77103      6.65838        -0.801643     -0.116982     -0.264538
O       0.03409      9.88635      6.49372         0.107302     -0.374644      0.276021
O       3.86479      9.60359     10.73654        -0.005571      0.580911      0.344361
O      15.54226      9.80208     10.73645         0.653206      0.210935      0.433688
O       7.73787      1.95785      2.42019        -0.906815      0.304154      0.346568
O       7.78861      1.95645     15.05193        -0.622552     -0.126079     -0.423401
O       7.78373     13.48545      2.47631        -0.768652      0.415199      0.266830
O       7.78415     13.57046     15.01515        -0.997915      0.389217     -0.347939
O       7.76182      1.89669      6.66619         0.761690      0.690960      0.042159
O       7.73290     13.59425      6.64240         0.689681      0.332918      0.416761
O       7.68921      1.96918     10.81071         1.073349     -0.067869      0.212557
O       7.83380     13.50694     10.85705        -0.868868      0.336700     -0.004568
O       7.79360      5.61701      2.41049        -1.530940      1.277715     -0.239197
O       7.70150      5.70260     15.04847         1.330944      0.023285      0.286957
O       7.72305      5.86142      6.66568         0.949958      0.274571     -0.230324
O       7.69803      5.84221     10.81665         1.237444     -0.055494     -0.102060
O       7.73574      9.89710      2.40518        -0.107866     -0.106365      0.202418
O       7.69917      9.89253     14.94054         1.024232     -0.397990     -0.256851
O       7.76906      9.53986      6.87066         0.561890      0.330560     -0.363519
O       7.78365      9.72743     11.00112        -0.183797      0.104129     -0.833585
O      11.64178      2.04510      2.44793         1.069072     -0.534129      0.550817
O      11.79168      1.73839     14.88307        -0.556377      0.158170      0.034631
O      11.67274     13.70944      2.39808        -0.210682     -0.169618      0.873754
O      11.70636     13.65150     15.05109        -0.541764      0.173624     -0.230368
O      11.59112      1.85173      6.58594         0.765465     -0.019970     -0.180777
O      11.60919     13.67404      6.67936         0.468423     -0.703616      0.030891
O      11.74002      1.99135     10.80753        -0.887412     -0.475756      0.516502
O      11.68638     13.74655     10.77184         0.404991      0.014843      0.037832
O      11.59085      5.81344      2.45411         0.500566      0.476849      0.373116
O      11.73267      5.74039     15.01687        -0.765182      0.852914     -0.235776
O      11.62685      5.85937      6.70226         0.186242      0.208734     -0.615202
O      11.76180      5.79446     10.76704        -0.942085      0.479146      0.776047
O      11.68505      9.54089      2.47660        -0.945839      0.315155     -0.487880
O      11.67805      9.60838     15.15830        -0.778899      0.695477     -0.681499
O      11.64902      9.64008      6.55902        -0.364882      0.133667     -0.168226
O      11.74064      9.63722     10.82022        -1.078286     -0.112794      0.197824
O       2.06748      3.94812      2.35701        -0.143290     -0.320558      0.586239
O       2.05338      3.92714     15.01206        -0.641560     -0.131284     -0.543581
O       1.77168      0.09736      2.55477        -0.147559     -0.808658      0.211648
O       1.66269      0.04438     14.73350         0.406291      0.224652      0.479881
O      13.60992      3.88824      2.70577        -0.035987      0.024487     -0.460896
O      13.53645      3.78302     14.82973         0.302871      0.504644      0.141528
O      13.70011      0.01125      2.54201        -0.148559      0.706746     -0.113047
O      13.71510     15.52125     15.09068         0.173862      0.642202     -0.490439
O       1.89106      3.88138      6.61612         0.106209     -0.021974      0.741161
O       2.09633     15.56008      6.70741        -0.390392      0.337660     -0.340488
O      13.63235      3.83909      6.70638         0.180622      0.096006     -0.365466
O      13.58151     15.55687      6.78610         0.354204     -0.172241     -0.454588
O       1.90200      3.87982     10.64887         0.441334      0.933060      0.275196
O       1.76041      0.02042     10.72204         0.437184     -0.678166     -0.161444
O      13.67189      3.88746     10.82361        -0.113613     -0.133265     -0.082337
O      13.78180     15.56322     10.59695        -0.338093     -0.299382      0.542729
O       1.73708      7.82413      2.63366         0.758025     -0.160240     -0.373009
O       1.76111      7.90585     15.03984         0.299603     -1.202162     -0.233217
O      13.68973      7.75426      2.57602        -0.009914      0.016427     -0.070169
O      13.61824      7.75778     14.99585         0.153127     -0.253572     -0.301338
O       2.08524      7.90849      6.68780        -0.455133     -0.757944     -0.825168
O      13.70200      7.82749      6.55162        -0.188008     -0.119287      0.087168
O       1.91449      7.79895     10.66767        -0.323285      0.029878      0.950123
O      13.68405      7.76574     10.83498         0.176031      0.017876      0.209113
O       1.83353     11.76798      2.37544         0.432866     -0.393673      0.410884
O       2.01970     11.69729     14.98669        -0.334327     -0.151454      0.057559
O      13.45784     11.63053      2.40067         0.334942      1.190370      0.156547
O      13.52883     11.67937     15.03732         0.214724      0.049434      0.050941
O       2.12496     11.70707      6.72301        -0.924930     -0.388735     -0.254620
O      13.60523     11.67865      6.50327        -0.014866      0.126271      0.675207
O       2.11172     11.72832     10.73878        -0.257343     -1.142524      0.129382
O      13.54357     11.68274     10.65825        -0.014571      0.004270      0.730830
O       5.61654      3.93144      2.40388         0.225229     -0.211653      0.302200
O       5.68945      3.87655     15.16209         0.048818     -1.026525     -0.892900
O       5.89264     15.58922      2.55109        -0.103234      0.284280     -0.105709
O       5.88042      0.01798     15.17848        -0.086056     -0.459367     -0.754384
O       5.92195      3.99955      6.75002        -0.298970     -0.531533     -0.280498
O       5.85200     15.59679      6.71730         0.016722      0.122168     -0.369042
O       5.76107      3.89448     10.86787         0.220894     -0.087823     -0.535786
O       5.83250     15.51509     10.62416         0.315611      0.750883      0.719841
O       5.80368      7.85205      2.48833         0.151499     -0.734072     -0.112463
O       5.94132      7.81425     15.05733        -0.384315     -0.125532     -0.182584
O       5.75242      7.73768      6.60208         0.162994     -0.165224      0.169577
O       5.71113      7.78674     10.94948         0.878759      0.557549      0.082638
O       5.71188     11.71474      2.74942         0.148536      0.276100     -0.966497
O       5.70756     11.73153     14.92608        -0.207698      0.975808      0.022097
O       5.93661     11.64523      6.60633         0.010151     -0.507207      0.148812
O       5.75133     11.70572     10.80252         0.129927     -1.040800      0.171300
O       9.65237      3.89143      2.39904         0.223405      0.419838      0.448259
O       9.85475      3.80905     14.87925        -0.299445     -0.015899      0.365494
O       9.71388     15.60720      2.49869        -0.691290     -0.761986      0.125249
O       9.73419     15.57545     15.14732        -0.256603     -0.881825     -0.777174
O       9.80868      3.91139      6.54131        -0.989880     -0.059824      0.357431
O       9.62999      0.04270      6.70160         0.044069     -0.603052     -0.090867
O       9.73740      3.93514     10.77381        -0.258982     -0.010447      0.420660
O       9.60129      0.03131     10.77406         0.235383     -0.040922      0.332643
O       9.57195      7.82391      2.53152         0.033974     -0.226254     -0.219807
O       9.61606      7.77645     14.85908         0.154174      0.255185      0.564765
O       9.60309      7.69469      6.71573         0.533468      1.960200     -0.270826
O       9.61986      7.70914     10.91837         0.425978      0.610342     -0.218476
O       9.89091     11.65021      2.62468        -1.071516      0.096571     -0.724030
O       9.71896     11.67174     14.95051         0.450557     -0.151995      0.342532
O       9.55343     11.57347      6.60979         0.613223      0.222568      0.355652
O       9.79027     11.69155     10.77483         0.224624     -0.721995     -0.142710
