  # total energy = -7882.70090537 
CRSYTAL
PRIMVEC
    15.6080000000000005    0.0000000000000000    0.0000000000000000
     0.0000000000000000   15.6080000000000005    0.0000000000000000
     0.0000000000000000    0.0000000000000000   16.6239999999999988
PRESSURE
-1.46677 -1.54983 -1.93187 -0.328586 0.333111 -0.047532
PRIMCOORD
320 1
Pb       4.00165      3.86382      4.11247        -0.255625      0.446474     -0.062523
Pb       4.08192      4.02606      0.13736        -0.174471      0.007207     -0.416074
Pb       3.90768      0.02695      3.97032        -0.116404     -0.491274      0.238989
Pb       3.79018     15.57163     16.58360         0.407669      0.021775      0.023415
Pb       0.07027      3.83383      4.16780         0.117493      0.227143     -0.174280
Pb      15.54565      3.78566     16.59888         0.214634      0.128041      0.223056
Pb      15.55716     15.49271      3.99870         0.249746      0.399011      0.377658
Pb      15.55834     15.57446     16.57290        -0.393545      0.148045     -0.014023
Pb       3.67065      3.73204      8.30566         0.572518      0.393475     -0.055890
Pb       3.85659      0.03591      8.19058        -0.015967      0.054588      0.162162
Pb      15.46987      3.80623      8.28986         0.593986     -0.139962     -0.121892
Pb       0.02273     15.56431      8.22108         0.382786      0.249065     -0.342733
Pb       3.79942      3.89625     12.48666         0.366849      0.130399     -0.556402
Pb       3.83587     15.45815     12.45589         0.350413      0.553436     -0.362784
Pb       0.06315      3.94042     12.51622        -0.241249     -0.030240     -0.406376
Pb       0.03578      0.24483     12.69838         0.011130     -0.383764     -0.522535
Pb       3.80228      7.89987      4.16727         0.012303     -0.427424     -0.283784
Pb       3.85259      7.75287     16.54793         0.081145     -0.272979     -0.163156
Pb       0.09614      7.88899      4.23383        -0.134051     -0.378407     -0.547588
Pb       0.00444      7.75393     16.57378        -0.147814     -0.052445     -0.376640
Pb       3.89495      7.68473      8.26880         0.011276     -0.196200      0.151398
Pb      15.29480      7.71603      8.62392         0.599940     -0.126063     -0.582232
Pb       3.93578      7.83654     12.40866         0.059797     -0.617290     -0.475134
Pb      15.52490      7.93017     12.58844         0.379498     -0.223773     -0.095577
Pb       3.81382     11.70472      4.02553         0.312238      0.008233      0.355735
Pb       3.84907     11.70577     16.52642         0.160127     -0.096563      0.264848
Pb      15.54354     11.66610      4.02583        -0.112452     -0.141942      0.182949
Pb      15.55017     11.80223     16.56946        -0.149530     -0.482232     -0.209780
Pb       3.82296     11.73943      8.14278         0.596316     -0.379970      0.394114
Pb      15.60181     11.62608      8.26316         0.071186      0.440559     -0.045216
Pb       3.97206     11.62895     12.31994        -0.192386      0.320021     -0.285613
Pb       0.17928     11.63125     12.39882        -0.094194      0.192211     -0.115147
Pb       7.79613      3.66682      4.18573         0.012155      0.451958     -0.015971
Pb       7.80177      4.00501      0.00649        -0.105951      0.330052     -0.136177
Pb       7.70684     15.47310      4.06747         0.455523      0.167160      0.093169
Pb       7.84525      0.17589      0.07372         0.292452     -0.133226     -0.314787
Pb       7.62363      3.89942      8.39644         0.156841     -0.130154     -0.419998
Pb       7.88923     15.59308      8.27121        -0.309913     -0.100816     -0.415289
Pb       7.73995      3.70801     12.42618        -0.168403      0.191256     -0.328224
Pb       7.65992     15.54429     12.51795         0.151523      0.193495     -0.692054
Pb       7.76669      7.84022      4.18214         0.213942      0.260818     -0.125404
Pb       7.66552      7.88795     16.58657         0.351786     -0.554060     -0.385390
Pb       7.83836      7.72429      8.20784        -0.263091     -0.100307      0.356486
Pb       7.75801      7.64756     12.44140        -0.095492      0.024937     -0.755435
Pb       7.93524     11.74601      4.26464        -0.425006     -0.398543     -0.529457
Pb       7.62120     11.76330     16.57811         0.491628     -0.055528     -0.103708
Pb       7.71796     11.75408      8.19242         0.031787      0.041701     -0.026486
Pb       7.73898     11.53734     12.39415        -0.325394      0.526932     -0.174227
Pb      11.87846      3.81503      4.37716        -0.203183      0.142167     -0.857461
Pb      11.78386      4.07405      0.20519        -0.466989     -0.268382     -0.410844
Pb      11.57529     15.43399      4.16027        -0.078988      0.257711     -0.397653
Pb      11.58070     15.50680      0.00821         0.174486      0.481821     -0.470870
Pb      11.73673      4.13869      8.48437         0.244425     -0.371962     -0.510895
Pb      11.66455      0.17364      8.33227        -0.084036     -0.294559     -0.358977
Pb      11.80306      3.82520     12.61118        -0.137037     -0.114691     -0.861132
Pb      11.66542      0.00953     12.43219        -0.217331      0.026083      0.172643
Pb      11.77686      7.68771      4.17853        -0.133068      0.070992     -0.340818
Pb      11.52170      7.81803      0.02014         0.114918     -0.606702     -0.301360
Pb      11.61178      7.86349      8.33272         0.223830     -0.235413      0.042977
Pb      11.44611      8.01170     12.66849         0.427498     -0.639714     -0.689292
Pb      11.80410     11.31665      4.23590        -0.141261      0.658782     -0.028499
Pb      11.70140     11.72039     16.52215        -0.443305      0.446210     -0.271240
Pb      11.93801     11.95568      8.53639        -0.449810     -0.431045     -0.312756
Pb      11.56072     11.87698     12.38942         0.404809     -0.485412      0.505600
Ti       1.94662      1.97360      2.10869        -0.475695     -0.041802      0.652128
Ti       1.96142      1.95369     14.78051         0.511827      0.038289     -0.565111
Ti       1.88564     13.63117      2.10916         0.862118      0.359933      0.333393
Ti       1.95165     13.56450     14.70440         0.227330      0.606798     -0.769905
Ti      13.61951      1.89083      2.13374        -0.091660     -0.264732      0.081521
Ti      13.51660      1.95494     14.70288        -0.885243     -1.293535      0.572999
Ti      13.57367     13.61658      2.18314        -0.386983      0.135344     -0.464924
Ti      13.64272     13.62906     14.56961        -1.376386      1.105897     -0.086296
Ti       1.98875      1.94800      6.14466        -1.188927     -0.203198      1.135394
Ti       1.96420     13.61371      6.34506        -0.489171      0.690499     -0.777721
Ti      13.64629      1.89304      6.28670         0.986738     -0.064907     -0.398774
Ti      13.64446     13.65599      6.31385         0.240334     -0.470373     -0.616877
Ti       1.94727      1.91640     10.54650         0.759995     -0.070206     -0.979423
Ti       1.91219     13.72714     10.54058         0.611749     -0.757846     -0.064822
Ti      13.69458      1.82157     10.54997        -0.119842      1.143756      0.320477
Ti      13.81392     13.64702     10.59952        -0.231449     -0.111220      0.450880
Ti       1.92058      5.82045      2.23639         0.113590      0.149236      0.403849
Ti       1.99701      5.74601     14.76184         0.526946      0.214221     -0.892572
Ti      13.64678      5.79079      2.17845         0.361686      0.599774      0.307957
Ti      13.69433      5.80431     14.65189        -0.301382      0.949637      1.261062
Ti       2.00211      5.83463      6.35066        -0.046099     -0.584246     -0.904221
Ti      13.80638      5.76619      6.36040        -0.191032      0.153048     -0.022894
Ti       1.90417      5.78809     10.41441         1.820623      0.380385     -0.027028
Ti      13.66062      5.81070     10.63736        -0.667876     -0.815971     -1.215071
Ti       1.91305      9.72098      2.09363         0.053282     -0.349403     -0.053236
Ti       1.94690      9.72071     14.68140        -0.527339     -0.692480      0.262654
Ti      13.62585      9.65094      2.01029         0.188244     -0.123909      0.455227
Ti      13.60657      9.79679     14.56429         0.469399     -1.530403      1.147184
Ti       1.92569      9.71754      6.32689         0.493380     -0.331286     -0.177300
Ti      13.65797      9.68682      6.49275        -0.133313      0.275554     -0.479276
Ti       1.96675      9.65294     10.48065         0.687613     -0.020682     -0.738414
Ti      13.63045      9.74171     10.54917        -0.500587      0.629676     -0.157211
Ti       5.84686      1.89583      2.16788         0.188219      0.266308     -0.063197
Ti       5.78678      1.96267     14.76256         0.650871      0.058113     -1.258502
Ti       5.76618     13.62873      2.04143         0.534568      0.018759      1.229422
Ti       5.80739     13.67704     14.56698         0.350193      0.254692      0.684929
Ti       5.82704      1.92951      6.34538         0.511267      0.012703      0.579015
Ti       5.81084     13.70462      6.22590         0.564743     -0.592499      1.166221
Ti       5.85147      1.87952     10.47777        -0.402623      0.559464      0.220097
Ti       5.85626     13.68862     10.38394         0.027092     -0.316782      1.236715
Ti       5.85152      5.89693      2.27352        -0.059760     -0.727130     -0.857934
Ti       5.88723      5.87457     14.50680        -0.199842     -0.312022      1.931790
Ti       5.90141      5.78176      6.36974        -0.667203     -0.283399      0.070774
Ti       5.86556      5.75007     10.39340        -0.375734      0.705650      0.343310
Ti       5.78895      9.78742      2.12508         0.688406     -0.018555      0.824168
Ti       5.78968      9.81240     14.62549         0.639301     -0.884948      0.222772
Ti       5.81878      9.73952      6.33401         0.130758      0.449571     -0.290450
Ti       5.83492      9.71197     10.33964        -0.015723     -0.442361      0.689401
Ti       9.72689      1.89809      2.27930         0.636443     -0.343499     -0.725619
Ti       9.63577      1.94502     14.53955         1.546733     -0.617531      1.658091
Ti       9.69567     13.54056      2.11774         0.049632      0.636223      0.803433
Ti       9.67837     13.63561     14.61090         0.507249      0.485997      0.226481
Ti       9.72833      1.95104      6.37298        -0.666937     -0.544605     -0.665319
Ti       9.78394     13.54670      6.33671        -0.000091      0.603920     -0.240392
Ti       9.81669      2.01842     10.41808        -0.737824     -0.828175      0.963187
Ti       9.77891     13.64756     10.48500        -0.815957      0.854694     -0.029986
Ti       9.68341      5.78592      2.31905         0.424450      0.104294     -0.765198
Ti       9.78567      5.75333     14.56136        -0.666322      0.882684      0.137833
Ti       9.82038      5.75942      6.33271        -0.537897      0.109093      0.115800
Ti       9.82953      5.83903     10.48498        -1.140364      0.344887      0.392869
Ti       9.75181      9.73302      2.18384        -0.700322     -0.347562      0.418744
Ti       9.70952      9.73155     14.67849        -0.554152      0.299003     -0.061539
Ti       9.73871      9.71193      6.42237         0.023830     -0.230513     -0.415002
Ti       9.69995      9.80906     10.46052        -0.018870     -0.844278     -0.458567
O       1.93897      1.97380      0.35182         0.011864     -0.399738     -0.730174
O       2.00297      1.97094     12.92564        -0.286342      0.113100      0.368520
O       1.96405     13.61761      0.32806        -0.418769     -0.248133     -0.347898
O       2.09248     13.49476     12.92280        -0.353829      0.312952      0.373725
O      13.58091      1.82392      0.30456        -0.106248      0.260053      0.699745
O      13.58509      1.87302     12.89939         0.363572      0.357146     -0.335284
O      13.67010     13.67586      0.35755         0.363668     -0.723244      0.446067
O      13.42354     13.55343     12.76933         0.549373      0.221085      1.205595
O       1.95163      2.01342      4.37542        -0.019580     -0.236614     -0.410428
O       2.02154     13.59495      4.55857        -0.282228     -0.024281     -0.039977
O      13.73110      1.92144      4.48285        -0.359107      0.391979      0.298744
O      13.62170     13.52418      4.48401         0.039455      0.219140      0.598190
O       1.99313      1.75858      8.72764         0.090212      0.234023      0.745283
O       1.75765     13.67522      8.76026         0.307677      0.075942     -0.021683
O      13.77385      1.91696      8.77342        -0.264576     -0.313624     -0.119489
O      13.80778     13.61141      8.80496        -0.024614      0.189375     -0.341523
O       2.08090      5.85499      0.45272         0.080332      0.240614     -0.685515
O       1.99131      5.63177     12.94385        -0.230571     -0.172683     -0.123877
O      13.53989      5.79164      0.34332         0.173691     -0.228294      0.796015
O      13.77186      5.71946     12.88922         0.188108      0.177889     -1.411341
O       1.89620      5.80419      4.47743         0.091410     -0.233605      0.671172
O      13.78246      5.71782      4.53964        -0.214299      0.007717      0.386640
O       1.98980      5.91370      8.62840        -0.071720     -0.104196      0.299483
O      13.66186      5.73776      8.68083         0.451933     -0.154907      1.380770
O       1.99007      9.57319      0.29401        -0.240127      0.333744      0.475931
O       1.97092      9.79385     12.90842        -0.179074     -0.357251     -0.417343
O      13.51350      9.61375      0.23800         0.320831      0.393350      0.446650
O      13.69948      9.58749     12.78244        -0.190952      0.026902     -0.842977
O       1.89161      9.74309      4.48322         0.033346      0.035289      0.583786
O      13.60535      9.68379      4.67090         0.244274     -0.117741      0.432859
O       2.11294      9.45526      8.68313        -0.576951      0.851379      0.320136
O      13.71182      9.66005      8.70572         0.200652      0.173282      0.330954
O       5.88063      1.88359      0.37836         0.221658     -0.005809     -0.259880
O       6.02323      1.93384     12.90071        -0.185178      0.078128      0.885875
O       5.85644     13.69681      0.27585        -0.076465     -0.405172      0.137809
O       5.73396     13.66523     12.78357         0.309872     -0.078923      0.193987
O       5.89794      1.98317      4.56961        -0.333445     -0.093499     -0.969064
O       5.74394     13.70210      4.49639         0.058724     -0.313751     -1.215779
O       5.73744      1.99679      8.69571         0.222017     -0.431298     -0.357098
O       5.91073     13.58904      8.65922        -0.057928      0.287154     -0.602701
O       5.82466      5.70298      0.37267         0.199242      0.784285      1.518119
O       5.88605      5.92153     12.76418         0.219462     -0.401022     -0.657322
O       5.97665      5.75391      4.54427        -0.217991     -0.018381      0.196035
O       5.85032      5.85646      8.58796         0.198938     -0.484807      0.289663
O       5.92429      9.65746      0.33982        -0.528096      0.129666      0.045263
O       5.86032      9.84791     12.85929        -0.066824     -0.244029     -0.160963
O       5.90231      9.78877      4.54860        -0.240805     -0.366409     -0.090363
O       5.80330      9.79129      8.58474         0.020250     -0.022488     -0.175835
O       9.71857      1.85604      0.46016         0.019705      0.354723      0.536853
O       9.67367      1.84884     12.80670        -0.060276     -0.069963     -1.191015
O       9.62831     13.39933      0.36037         0.214371      0.225168     -0.387582
O       9.88777     13.77377     12.82819        -0.019756     -0.412374     -0.271472
O       9.51936      1.63827      4.55012         0.857773      1.018086      1.126945
O       9.88877     13.59858      4.48889        -0.490184      0.087810      1.279378
O       9.75995      1.89471      8.64366         0.254913      0.270357     -0.591791
O       9.73345     13.41458      8.69736         0.050097      0.221886     -0.169698
O       9.87753      5.79123      0.45193         0.091675     -0.539747      0.451570
O       9.63684      6.01307     12.75808         0.707492     -0.136375      0.768574
O       9.67465      5.80009      4.53184         0.410492      0.297577      0.633584
O       9.84055      5.69603      8.67766         0.348326      0.203171      0.239960
O       9.70756      9.78413      0.38850         0.389890     -0.041697      0.266337
O       9.78373      9.54580     12.86023        -0.609252      0.446121      0.128214
O       9.78157      9.53734      4.59140         0.050761      0.514844      0.318078
O       9.67064      9.87816      8.67514         0.287679     -0.245346      0.261516
O       3.89408      1.80571      2.36689        -0.311019      0.239608      0.236210
O       3.97494      1.82869     15.03392        -0.792886     -0.162411     -0.118632
O       3.89393     13.83738      2.41773        -0.745731     -0.643727     -0.246276
O       3.86632     13.58594     14.96735         0.129695      0.053075      0.140409
O      15.52823      2.01495      2.31977         0.432530     -0.042232      0.279919
O       0.02002      1.83394     14.98968         0.027331      0.589256     -0.190004
O       0.03384     13.53584      2.47068        -0.376620     -0.245486     -0.019800
O      15.54650     13.67088     14.89725         0.112585     -0.646176     -0.026316
O       3.87819      1.94151      6.49572         0.283162     -0.402141      0.380794
O       3.92924     13.55136      6.62714        -1.002036      0.352900      0.290947
O       0.05807      1.91897      6.50382        -0.383169     -0.352866      0.377319
O      15.57281     13.69582      6.63058         0.094095     -0.197097     -0.198613
O       3.99142      1.86961     10.86517        -1.010860      0.289993      0.193958
O       3.88838     13.76093     10.70640        -0.170574     -0.387384      0.049657
O       0.03068      1.90539     10.85895         0.118212      0.193874      0.388848
O       0.08527     13.66803     11.11098        -0.636242      0.081707     -0.483111
O       3.89402      5.91051      2.56811         0.700973     -0.145458     -0.035280
O       3.96644      5.87045     14.91526        -0.103533      0.218307      0.263203
O       0.01611      5.74053      2.44489        -0.949748      0.040250     -0.237777
O       0.12486      5.74475     15.08077        -1.007936     -0.652443     -0.078745
O       3.91609      5.60507      6.66846         0.300785      0.698272     -0.430582
O       0.09613      5.70337      6.64902        -0.612203      0.257884      0.092536
O       3.97935      5.74445     10.76566        -0.694335      0.095811      0.176720
O       0.09713      5.58583     10.74093        -0.785089      0.764332      0.248452
O       3.85168      9.64742      2.44832         0.406313     -0.235954      0.012742
O       3.89357      9.74198     14.92048        -0.167200     -0.265234      0.139911
O      15.56431      9.76622      2.37266         0.192931      0.008499     -0.015916
O      15.51776      9.76078     14.89362         0.911141     -0.183463      0.203205
O       3.90645      9.93943      6.49763        -0.305156     -0.560089      0.211100
O       0.08139      9.74350      6.60414        -0.584965     -0.384026      0.326305
O       3.94115      9.69846     10.82959        -0.147378      0.229393      0.009780
O       0.07092      9.64988     10.77701        -0.392018     -0.094854      0.232372
O       7.75828      1.82129      2.51361        -0.322115      0.356876     -0.148259
O       7.84532      1.96850     15.09371        -0.853437      0.024295     -0.270785
O       7.74224     13.56625      2.45928         0.109166     -0.631581      0.024151
O       7.80677     13.54679     14.83109        -0.710221     -0.116713     -0.094054
O       7.73867      1.92413      6.66535         1.187247     -0.048774      0.340626
O       7.75419     13.72889      6.60184         1.559451     -0.439032     -0.171004
O       7.84672      1.91380     10.76624         0.440903      0.005566     -0.073420
O       7.87162     13.75481     10.80973        -0.896759     -0.453950     -0.041391
O       7.84451      5.67134      2.40194        -0.889257      0.254524      0.175907
O       7.80506      5.80505     14.94252         0.489014     -0.190286     -0.002755
O       7.87507      5.70105      6.75931        -0.406243      0.918353     -0.367851
O       7.82635      5.86098     10.65560         0.634587     -0.103295      0.289048
O       7.67631      9.86123      2.49215         1.269062     -0.163799      0.029341
O       7.79076      9.81688     14.95245         0.253807     -0.016769     -0.067826
O       7.82228      9.56601      6.61228        -0.280342      0.354290     -0.001739
O       7.78284      9.78596     10.75870        -0.428327     -0.270869      0.091707
O      11.62753      1.66089      2.65630         0.654460      0.825329     -0.471107
O      11.60857      1.88318     14.84634         0.619213      0.516763      0.047464
O      11.71434     13.78785      2.23124        -0.161859     -0.512927      0.479430
O      11.65073     13.69184     15.06073         0.826294     -0.710393     -0.101129
O      11.77554      2.02359      6.60719        -1.022721     -0.441250     -0.104982
O      11.72453     13.51689      6.74959        -0.229528      0.340058     -0.219330
O      11.71470      1.89553     10.74697         0.709878     -0.155547      0.185192
O      11.75789     13.45923     10.64685        -0.033296      0.110492      0.156244
O      11.76893      5.84925      2.67153        -0.359746     -0.356199     -0.389673
O      11.73977      5.86725     14.89352        -0.330901     -0.181758     -0.238502
O      11.81590      5.74551      6.62700        -0.871315      0.040471     -0.298839
O      11.77522      5.81206     10.73971         0.322390      0.009251      0.324525
O      11.71344      9.65115      2.54788        -0.229771     -0.216618     -0.445982
O      11.68999      9.55227     14.85617         0.109377      0.152862      0.021834
O      11.72400      9.71394      6.75140         0.285523     -0.036774     -0.235922
O      11.68274      9.86145     10.71197         0.939425     -0.446389      0.247794
O       1.95502      3.90410      2.39033         0.356066     -0.672098      0.259469
O       2.20644      3.80616     15.05691        -0.907564      0.194966     -0.117903
O       1.79944     15.58289      2.36244         0.165720      0.039091      0.210920
O       1.92942     15.54720     15.02333         0.160306     -0.174637     -0.254580
O      13.46482      3.80245      2.33395        -0.028611      0.310430      0.192005
O      13.66400      3.83009     14.99108         0.053845      0.364668      0.020720
O      13.79819     15.53484      2.52153        -0.339252     -0.218832     -0.377367
O      13.56159     15.58945     14.94184         0.594411     -0.901637     -0.347989
O       1.98569      3.80051      6.61106        -0.269525     -0.210552     -0.053218
O       1.96548     15.55912      6.69193         0.241537     -0.106311     -0.521822
O      13.76680      3.81699      6.68489        -0.296074      0.352641     -0.344555
O      13.58006     15.58666      6.57305         0.103956     -0.400391      0.250502
O       2.13345      3.83376     10.55573        -0.438320      0.137610      0.888088
O       1.94243      0.01906     10.92863        -0.055063     -0.584622      0.158942
O      13.69089      3.84461     10.90440        -0.175655     -0.112330      0.030811
O      13.73115     15.54545     10.96892        -0.189757      0.223900     -0.505715
O       1.87618      7.83619      2.53388        -0.044117     -0.286003      0.101221
O       1.91992      7.70633     14.92111         0.103850      0.893915      0.097800
O      13.67112      7.74236      2.45665         0.147084      0.223285      0.016274
O      13.86026      7.65496     14.93073        -0.307412      0.448317     -0.447386
O       2.12210      7.68112      6.39127         0.005180      1.604887      0.316934
O      13.76836      7.68938      6.80965        -0.239224      0.719850     -0.609785
O       2.08976      7.74572     10.89566        -0.630628     -0.411486     -0.041301
O      13.79328      7.72670     10.63213         0.174772      0.157141      0.692276
O       2.07344     11.68258      2.36792        -0.419390     -0.062222     -0.061709
O       1.91856     11.60973     15.08111        -0.274785      0.787093     -0.102909
O      13.65177     11.57687      2.47597        -0.372074      0.560751     -0.262924
O      13.57926     11.61129     14.84908        -0.094614      1.322954      0.318244
O       1.91037     11.68087      6.68672        -0.114725     -0.020277      0.096136
O      13.74067     11.69736      6.70632        -0.061325     -0.478160      0.148720
O       1.94095     11.65723     10.81057         0.163545     -0.093422     -0.248972
O      13.85995     11.67032     10.72809        -0.190167     -0.745541      0.172940
O       5.74917      3.82001      2.42138         0.182165      0.042930      0.339051
O       5.77438      3.90247     14.95230         0.433940     -0.463697     -0.123470
O       5.84857     15.54235      2.50398         0.126894      0.419348     -0.253001
O       5.86422     15.53830     14.89575         0.187980      0.063066     -0.027426
O       5.89998      3.85653      6.69636         0.001880      0.029868     -0.299528
O       5.89921     15.57660      6.58297        -0.686950      0.745554      0.350160
O       5.99116      3.87296     10.74243        -0.122825     -0.205755      0.149496
O       5.80369      0.01043     10.73702         0.719891     -0.864406      0.273338
O       5.98958      7.72227      2.54955        -0.381799      0.662701     -0.438911
O       5.96943      7.76731     14.83145        -0.312137      0.696539      0.364151
O       5.75125      7.77595      6.67508         0.309045     -0.259889     -0.597463
O       5.80359      7.74386     10.63486         0.231977      1.042110      0.398793
O       5.58799     11.68774      2.39612         0.404256      0.167865     -0.511322
O       5.78397     11.67519     15.00074         0.052556      0.464168     -0.133592
O       5.95345     11.75758      6.55408         0.033035     -0.899085      0.182483
O       5.79017     11.71026     10.72133         0.415578     -0.021613      0.103216
O       9.71164      3.80542      2.57485         0.627044     -0.064138      0.052006
O       9.76949      3.90855     14.62825        -0.049913     -0.000597      0.592359
O       9.64501     15.49490      2.41339        -0.090475     -0.750315      0.060238
O       9.76869     15.58800     14.95762        -0.700265     -0.245861      0.172143
O       9.75348      3.85499      6.55567         0.256692     -0.397171     -0.223464
O       9.78744     15.55755      6.72564         0.418805     -0.104702      0.173291
O       9.96682      3.88475     10.82290        -0.657327     -0.119277      0.001054
O       9.89054     15.55761     10.65618         0.137481     -0.097657     -0.105157
O       9.68942      7.74813      2.49938         0.001237      0.485854     -0.093232
O       9.71530      7.78475     15.07446        -0.039893      0.049046     -0.429066
O       9.79640      7.75260      6.80039         0.184543     -0.580244     -0.306398
O       9.81056      7.78262     10.69243         0.125485      0.422116     -0.034229
O       9.86470     11.62918      2.61172        -0.305258     -0.152097     -0.210055
O       9.88471     11.70036     14.77880        -0.058739     -0.947861      0.226168
O       9.61561     11.62691      6.44913        -0.007500      0.567425      0.108650
O       9.65851     11.64836     11.00509         0.282693      0.531311     -0.453524
