  # total energy = -7881.74097839 
CRSYTAL
PRIMVEC
    15.6080000000000005    0.0000000000000000    0.0000000000000000
     0.0000000000000000   15.6080000000000005    0.0000000000000000
     0.0000000000000000    0.0000000000000000   16.6239999999999988
PRESSURE
-0.548635 -0.275403 0.520345 -0.296456 0.231949 -0.021765
PRIMCOORD
320 1
Pb       3.86561      3.78832      4.07887         0.298728      0.849193      0.582100
Pb       3.79761      3.79251      0.05104         0.196461      0.255937     -0.121237
Pb       3.90723     15.53372      4.19947         0.174092     -0.112988      0.302560
Pb       3.88313     15.52864      0.05092         0.187518      0.401664     -0.243928
Pb      15.47425      3.82897      4.13423        -0.015432      0.162374     -0.553390
Pb      15.55390      3.89398     16.54965         0.250234     -0.354345      0.688249
Pb       0.09727      0.00730      4.16637        -0.333327     -0.299556     -0.115946
Pb       0.06965     15.56075     16.62098        -0.367920      0.466511      0.301980
Pb       3.95835      3.97065      8.35036         0.074958     -0.239881     -0.679668
Pb       3.93445      0.15960      8.45316        -0.320611     -0.715239     -0.158154
Pb       0.01942      3.91142      8.23088        -0.588869      0.501255     -0.084736
Pb       0.09511      0.04648      8.28395        -0.310004     -0.139022     -0.093875
Pb       3.82386      4.00060     12.46298        -0.415893      0.046734     -0.303218
Pb       3.83102     15.51095     12.35733         0.332853      0.705156      0.583007
Pb      15.54688      3.77074     12.26091        -0.342852      0.106032      1.057941
Pb      15.53176     15.59174     12.40303         0.371353      0.547953      0.073534
Pb       3.79994      7.77331      4.16491         0.711521      0.183455     -0.440873
Pb       3.77076      7.78087     16.57296         0.635336     -0.334789      0.509661
Pb      15.58319      7.83783      4.03200        -0.155588      0.000002      0.361459
Pb       0.00300      7.79996     16.61926         0.010900     -0.095519     -0.007252
Pb       4.02377      7.81940      8.25488        -0.362880      0.298559      0.397406
Pb       0.00203      7.83463      8.26140        -0.258101     -0.227288      0.130955
Pb       3.79398      7.85742     12.54288        -0.040250     -0.020243     -0.234362
Pb      15.55962      7.75821     12.42508        -0.388244     -0.385388      0.155764
Pb       3.95270     11.70014      4.18835         0.071445     -0.708151      0.341214
Pb       3.88175     11.67262     16.51183        -0.021755     -0.285527      0.604711
Pb       0.03391     11.81568      4.15496        -0.243830     -0.430183      0.041595
Pb       0.06327     11.77897      0.07860        -0.227522     -0.263073     -0.024195
Pb       3.88218     11.64094      8.26467         0.045794      0.084468      0.361404
Pb      15.44980     11.71886      8.27861        -0.004037     -0.393377      0.181214
Pb       3.77050     11.82942     12.51941         0.649043     -0.665151      0.038125
Pb      15.51635     11.55003     12.37499        -0.447120      0.548658      0.035215
Pb       7.72762      3.90489      4.08715         0.562268      0.106132      0.581348
Pb       7.61423      3.68702     16.61900         0.274433      0.386333      0.490635
Pb       7.70783     15.59668      4.06645         0.570774     -0.215235      0.845030
Pb       7.76543     15.44564      0.02843         0.479806      0.560207     -0.640158
Pb       7.76496      3.93783      8.30561         0.569972     -0.101378     -0.255485
Pb       7.81183     15.53184      8.44590         0.608391      0.216765     -0.126522
Pb       7.76835      4.02442     12.48655         0.413645     -0.063712     -0.128877
Pb       7.88742      0.11146     12.51060        -0.172056     -0.292466     -0.297812
Pb       7.62058      7.79410      3.97118         0.459559     -0.213252      0.389979
Pb       7.88390      7.83208     16.53781        -0.820321     -0.784150      0.069439
Pb       7.84667      7.81982      8.42704         0.209632      0.223971     -0.745379
Pb       7.84609      7.78033     12.54807         0.190163     -0.094807     -0.251922
Pb       7.73020     11.77445      4.05144         0.421295     -0.384627      0.830011
Pb       7.79964     11.54137     16.60152         0.063582      0.438779     -0.427324
Pb       7.62461     11.65302      8.34402        -0.010808     -0.386494     -0.003561
Pb       7.73736     11.64071     12.51180        -0.076023      0.016860      0.075620
Pb      11.67885      4.01796      4.21482        -0.134079     -0.333437     -0.526768
Pb      11.75520      3.83136     16.49457        -0.460482      0.223238      0.837250
Pb      11.80175      0.21478      4.21511        -0.368949     -0.521907     -0.062081
Pb      11.69585     15.55893      0.01786        -0.112287     -0.113411     -0.303409
Pb      11.65412      3.83490      8.24070         0.306641      0.499590     -0.089119
Pb      11.52766     15.45428      8.20876         0.470752      0.160692      0.161705
Pb      11.63393      3.84023     12.42599         0.240190      0.217742      0.040464
Pb      11.83847     15.51785     12.41899        -1.179718      0.358453      0.940031
Pb      11.74829      7.71692      4.01326        -0.186922      0.380504      0.146635
Pb      11.64591      7.73429     16.58188         0.396548      0.093854      0.019262
Pb      11.69232      7.85078      8.08415        -0.198661     -0.760802      1.150433
Pb      11.74238      7.68205     12.48636        -0.274245     -0.249681     -0.379913
Pb      11.57503     11.87477      4.28112         0.770750     -0.505249     -0.772225
Pb      11.86874     11.78068     16.60022         0.182717      0.011092     -0.062931
Pb      11.68879     11.63909      8.21084         0.246856     -0.192457      0.158297
Pb      11.56773     11.61294     12.34986         0.588328      0.170724      0.631759
Ti       2.02360      1.91182      2.36636        -1.249205     -0.146687     -1.496752
Ti       1.93679      1.84989     14.79526        -0.768668      0.602093     -0.773014
Ti       2.16864     13.52809      2.27792        -1.831006      0.582614     -0.307316
Ti       1.95782     13.60501     14.64598         0.072540      0.161088     -0.163209
Ti      13.66343      1.90322      2.20839         0.101842      0.458933      0.012970
Ti      13.58749      1.98432     14.77752         0.926941     -0.421899     -1.610159
Ti      13.71321     13.61455      2.26999        -0.410428      0.392267      0.421795
Ti      13.72638     13.73237     14.62881        -0.702561     -0.620818      1.067712
Ti       1.90559      2.07872      6.36848         0.148044     -2.018895     -0.094397
Ti       1.93268     13.62212      6.46113         0.627987      0.684101      0.146644
Ti      13.61665      1.96326      6.30954        -0.126176     -0.133062      0.053445
Ti      13.70497     13.66894      6.30586        -0.319132     -0.013234      1.048291
Ti       1.99369      1.89668     10.53625        -1.173713      0.395585      0.622278
Ti       1.89356     13.57640     10.49046        -0.250800      0.837585      0.033782
Ti      13.55269      1.88148     10.37681         0.887812      0.204316      1.702770
Ti      13.57972     13.66847     10.55262         0.853308     -1.042073     -0.283224
Ti       1.95071      5.79964      2.23697        -0.246319     -0.000492      0.441294
Ti       1.90254      5.75325     14.69155         0.379619     -0.052721     -0.873056
Ti      13.73080      5.87856      2.08305        -1.003409     -0.550747      1.494770
Ti      13.64321      5.94200     14.74545         0.267741     -0.605092     -1.159114
Ti       2.03762      5.94647      6.25113        -0.973932     -0.322016      1.101514
Ti      13.74513      5.86172      6.20315        -0.131674     -0.471236      1.516178
Ti       1.88824      5.93497     10.45429         0.049043     -1.117833      2.353049
Ti      13.67417      5.71571     10.41015        -1.000882      0.608509     -0.953940
Ti       1.94015      9.74257      2.26101         0.702637     -0.199578     -0.076152
Ti       1.92095      9.77056     14.71173        -0.023231     -0.943295     -0.096955
Ti      13.59879      9.81206      2.25147        -0.027139      0.282119      1.231473
Ti      13.73266      9.79610     14.66080        -0.857921     -0.008437     -0.135566
Ti       1.90159      9.73893      6.35585        -0.016311     -0.157046      0.287428
Ti      13.63309      9.68966      6.35600         0.020979      0.711271     -0.936383
Ti       1.85261      9.77041     10.55504         0.541557     -0.236802     -0.664114
Ti      13.54314      9.60075     10.57862         0.051770      0.723348     -1.024783
Ti       5.88324      1.84456      2.31472        -0.108202      0.413107     -1.748111
Ti       5.77284      1.93752     14.60727         0.161886     -0.301667      0.446811
Ti       5.86953     13.49224      2.11985        -0.056079      1.458143      0.561040
Ti       5.92051     13.66755     14.61298        -0.840373     -0.459758     -0.289792
Ti       5.85460      1.90244      6.42997         0.290719      0.406987     -0.050946
Ti       5.84703     13.72991      6.51762        -0.230896     -1.526732     -0.771205
Ti       5.91192      2.09661     10.57200        -0.082227     -1.296995      0.151860
Ti       5.88312     13.61617     10.62692        -0.253569      0.294753      0.953344
Ti       5.76270      5.74095      2.20179         0.494053      1.072669     -0.444181
Ti       5.82679      5.81472     14.59630        -0.153488      0.482468      2.025545
Ti       5.94885      5.89862      6.37794        -0.301026     -0.088347     -0.518579
Ti       5.81030      5.91427     10.42987         0.389728      0.046610      1.064544
Ti       5.84979      9.76120      2.12039        -1.124667     -1.653425      1.332575
Ti       5.81974      9.76279     14.73769        -0.222078     -0.844254     -0.419114
Ti       5.79052      9.70841      6.34360         0.632895      0.553834      0.087895
Ti       5.76534      9.70149     10.70197         0.198578      0.739902     -1.160486
Ti       9.77628      1.91452      2.23386         0.494673      0.337147      0.834892
Ti       9.65676      1.95933     14.67145         0.232135     -0.706815     -0.273997
Ti       9.71877     13.69682      2.20763         1.188182      0.137464      0.246341
Ti       9.79663     13.57050     14.68099         0.314941      1.625015     -1.234560
Ti       9.71721      1.87639      6.44433         0.314262      0.117114     -0.904103
Ti       9.72952     13.48539      6.35226        -0.551909      1.628958      0.528888
Ti       9.76265      1.93080     10.54495        -0.168165     -0.386716     -0.799266
Ti       9.72137     13.60821     10.62493        -0.059684      0.528136      0.045680
Ti       9.75411      5.75679      2.14205         0.495378      0.496333      0.777769
Ti       9.71516      5.78028     14.75506        -0.198861     -0.136251     -0.835788
Ti       9.83337      5.80224      6.36811        -0.519466      0.164154     -0.774224
Ti       9.73733      5.83180     10.54289         0.627044      0.261693     -0.927597
Ti       9.76398      9.79976      2.11297         0.573668     -0.130646      2.404246
Ti       9.80932      9.74427     14.70593         0.577951     -0.368378     -0.196541
Ti       9.67293      9.73698      6.22230        -0.223350     -0.852119      0.753905
Ti       9.66223      9.72233     10.55262         0.325684     -0.686182     -1.023049
O       1.93260      1.94723      0.56082         0.548970     -0.385763      0.231874
O       1.92077      1.70346     13.02784        -0.005779      0.654248     -0.407071
O       2.08345     13.39817      0.48821         0.265940      0.499139     -0.190022
O       1.90192     13.64590     12.88007         0.006771     -0.003628      0.845696
O      13.63659      1.93123      0.41188        -0.175116     -0.377202     -0.067521
O      13.68452      2.02909     12.97207        -0.401996     -0.278575      0.700448
O      13.55671     13.66629      0.48791         0.234939     -0.145155     -0.337381
O      13.65253     13.73604     12.90153         0.118727     -0.240891     -1.031258
O       1.89746      1.86455      4.56533         0.564560      0.100588      0.248429
O       1.92453     13.66497      4.66303         0.439508     -0.171290     -0.293036
O      13.68535      1.96322      4.47926         0.188138      0.246674      0.640397
O      13.74292     13.57752      4.59139         0.272810      0.147621     -1.569629
O       1.87023      1.93493      8.77580         0.094920      0.020003     -0.780462
O       2.02339     13.52458      8.71843        -0.319770      0.369698      0.235668
O      13.62137      1.82429      8.67305         0.196100      0.076190     -1.714231
O      13.56437     13.67431      8.79469        -0.064251     -0.045405     -0.424894
O       1.88009      5.73498      0.50482         0.040422      0.195521     -1.340202
O       2.13949      5.74391     12.85807        -0.709724      0.205005      0.987778
O      13.69144      5.98026      0.34076         0.051118     -0.154338     -1.058214
O      13.63019      5.84479     12.93957        -0.320841      0.205942      0.573728
O       2.02671      5.97941      4.52223         0.054450     -0.382819     -0.929310
O      13.63860      5.85762      4.42126         0.070544     -0.154781      0.368392
O       1.77650      5.94991      8.76381         0.359750     -0.592908     -1.884127
O      13.77773      5.78042      8.60528        -0.055351      0.055934      1.284509
O       1.99327      9.86689      0.47483        -0.554454     -0.435057     -0.233760
O       1.93955      9.67597     12.91358        -0.083989     -0.157656      0.223477
O      13.65290      9.88285      0.51273         0.169077      0.022293     -1.174846
O      13.67793      9.66951     12.82919         0.153904      0.186089      0.835919
O       1.98442      9.62957      4.59110         0.142950      0.329296     -0.022738
O      13.64554      9.70210      4.59847         0.134653      0.010382      0.072203
O       1.89231      9.74087      8.78300         0.104500     -0.165061      0.413345
O      13.53965      9.72803      8.76846         0.041226     -0.202814      0.160680
O       5.82990      1.95260      0.43639         0.081402     -0.455759      1.644551
O       5.87002      1.98746     12.82688        -0.085273      0.250760      0.238934
O       5.75147     13.64504      0.37695         0.070802     -0.095050     -0.539386
O       5.88048     13.43427     12.81945         0.150991      0.815925      1.323326
O       5.82927      1.80645      4.60574         0.055166      0.135570      0.791620
O       5.98438     13.62189      4.70512        -0.341204      0.088237      0.566952
O       5.94740      1.98796      8.77130        -0.600147      0.023986      0.277853
O       5.71837     13.44533      8.88661         0.300687      0.269494     -0.812417
O       5.98027      5.62897      0.46006        -0.256153      0.312082     -0.146945
O       5.90444      5.85817     12.82888        -0.659269     -0.124098     -0.015915
O       5.77196      5.88643      4.59699         0.356621     -0.272976      0.422525
O       5.94060      5.88950      8.65749        -0.394414     -0.497659     -0.514511
O       5.86266      9.59760      0.39086         0.238871      0.591122     -0.597014
O       5.79950      9.68073     12.93416         0.017529     -0.695544      0.512640
O       5.76310      9.77873      4.58843         0.010200      0.043146     -0.687222
O       5.84639      9.76349      8.86596         0.045614     -0.239408      0.163951
O       9.71239      1.89014      0.49843         0.084291     -0.256849     -0.942032
O       9.71584      2.12817     12.87464        -0.339677     -0.669629     -0.027595
O       9.79948     13.84106      0.44727        -0.152957     -0.371507     -0.347423
O       9.85762     13.56139     12.87345        -0.689694     -0.049731      0.541132
O       9.88358      1.92158      4.66278        -0.438275     -0.035194     -0.264470
O       9.60417     13.57541      4.59568         0.035731     -0.414224     -0.423845
O       9.76795      1.71835      8.71740         0.126200      0.426764      0.788616
O       9.83366     13.73158      8.84417         0.044319     -0.445757     -0.378764
O       9.87223      5.93601      0.35959        -0.713349     -0.317533      0.144428
O       9.83463      5.77735     12.93703        -0.139838     -0.297301     -0.211424
O       9.87786      5.64343      4.56024        -0.076627      0.203729      0.533502
O       9.71526      5.87130      8.73761        -0.202680     -0.060536      0.169590
O       9.67571      9.63755      0.37062         0.408095      0.184824     -0.725843
O       9.75618      9.72965     12.94634         0.012339      0.067411      0.174673
O       9.93452     10.01464      4.50157        -1.151890     -0.617295      0.389670
O       9.65854      9.63847      8.71206        -0.258000      0.078360      1.194045
O       3.95984      1.99205      2.64194        -0.037421     -0.386378     -0.254969
O       3.81263      1.96291     15.03078         1.445695      0.110066      0.118068
O       4.06284     13.58313      2.72288        -0.762946     -0.524455     -0.361776
O       3.92764     13.34394     14.91861        -0.407560      1.198568     -0.397638
O       0.10164      1.74709      2.59189        -0.453468      0.448554     -0.185602
O       0.00052      1.84498     15.13311        -0.344332      0.046641      0.049229
O       0.10835     13.58151      2.46393        -0.193934      0.478375      0.178036
O       0.02726     13.61151     14.98950         0.563707      0.248650      0.306876
O       3.88630      1.81067      6.86609         0.120392      0.714489     -0.692643
O       3.91299     13.67182      6.78240        -0.299890      0.085417     -0.405208
O      15.58192      2.09323      6.66018         0.313650     -0.542596     -0.020466
O       0.03476     13.60442      6.78556        -0.530867      0.159240     -0.100350
O       3.84779      1.96319     10.76699         0.932721      0.116981      0.064879
O       3.85164     13.62426     11.08273         0.129931     -0.690875     -1.307604
O      15.55077      1.88921     10.89577         0.003824     -0.699005     -0.593327
O      15.57695     13.81545     10.81050        -0.103061     -0.608217     -0.213007
O       3.88352      5.74652      2.41889        -0.219095     -0.348519      0.394044
O       3.86235      5.66635     14.97364         0.390879     -0.040541      0.029913
O      15.54955      5.88689      2.48056         1.180126      0.139051      0.252703
O      15.57268      5.96169     14.94821         0.760024     -0.606974      0.250634
O       3.92157      6.04350      6.70977        -0.250036     -1.088692      0.058675
O       0.01530      5.84188      6.53289         0.231231     -0.362988     -0.078550
O       3.89038      5.84469     10.72727        -0.503493     -0.326615     -0.114460
O      15.49617      5.82932     10.90356         0.953724     -0.252733     -0.289202
O       3.94823      9.88147      2.46962        -0.049696     -0.135955      0.331864
O       3.89636      9.71095     15.11873        -0.413167     -0.130019     -0.657069
O       0.11001      9.82974      2.73200        -0.766490     -0.553667     -0.996960
O       0.00988      9.73946     15.03844         0.188702     -0.073073     -0.047322
O       3.84550      9.58466      6.69715        -0.175563      0.278805     -0.031104
O      15.51473      9.74871      6.78504         0.863308     -0.080577     -0.389621
O       3.87329      9.75952     10.94620        -0.936233     -0.471970     -0.141530
O      15.56847      9.65394     10.79772        -0.050682      0.245157      0.443438
O       7.82584      1.89976      2.63926        -0.604797      0.422236     -0.389811
O       7.78239      1.85182     15.03397        -0.881015     -0.141152     -0.246020
O       7.70377     13.67974      2.42646         1.429993      0.117086      0.124501
O       7.75435     13.54769     15.03756         0.028608      0.273734      0.003835
O       7.87109      1.93224      6.72804        -1.697863     -0.172545     -0.107775
O       7.77341     13.53273      6.82525         0.237980      0.051340      0.182345
O       7.78947      1.84350     10.79083         0.156607      0.430034      0.336365
O       7.79014     13.56220     10.79410         0.163818      0.041120      0.207262
O       7.80429      5.75750      2.67634         0.690247      0.476429     -0.874978
O       7.78613      5.89213     14.84660        -0.114596     -0.224164      0.275366
O       7.82398      5.73268      6.69748        -0.330962     -0.115122     -0.365956
O       7.80165      5.81151     10.84952        -0.065475      0.345303      0.047659
O       7.78625      9.74469      2.44868         0.720076     -0.404153      0.022616
O       7.76039      9.65798     15.04710         0.832316      0.018506     -0.210282
O       7.69183      9.65431      6.53890         1.330262      0.643157      0.260175
O       7.78849      9.69775     11.03413         0.125447     -0.382112     -0.441870
O      11.75836      1.91125      2.55711        -0.061064     -0.105251     -0.349645
O      11.58643      2.02246     14.93456         0.956354     -0.486468      0.422651
O      11.72099     13.60639      2.57940        -0.589442      0.156640     -0.109287
O      11.70786     13.59820     14.94912         0.375639      0.359801      0.474921
O      11.74520      1.99709      6.55651         0.157377     -0.511575      0.576244
O      11.73902     13.58096      6.53589        -1.085273     -0.255919      0.438879
O      11.68216      1.86860     10.78462        -0.441739      0.350425      0.198950
O      11.65322     13.58589     10.94606         0.700664     -0.027127     -0.318556
O      11.79224      5.82867      2.40096        -0.803492      0.010755      0.245884
O      11.74754      5.76151     14.99461        -0.536792      0.402953      0.204143
O      11.72543      5.79042      6.67599        -0.153602      0.131377     -0.264818
O      11.68489      5.75519     10.70409         0.260853     -0.022544      0.610879
O      11.73370      9.91845      2.65649        -0.764375     -0.504867     -1.191150
O      11.76773      9.64049     14.97583        -0.670253      0.787200      0.055335
O      11.63422      9.63659      6.70157         0.114295      0.910113     -0.480827
O      11.62441      9.68713     10.81039         0.476854      0.307955      0.314657
O       1.89869      3.87094      2.57990         0.216201     -0.496042      0.493022
O       1.84026      3.82103     15.16659         0.225952      0.640674     -0.869872
O       2.26419     15.47488      2.48481        -0.537151      0.425471      0.169401
O       2.01485     15.55649     15.17028         0.071195     -1.434557     -0.061756
O      13.75863      3.88799      2.39358         0.217614     -0.284026      0.157216
O      13.67828      3.88192     15.08082         0.026506      0.416977     -0.137892
O      13.68205     15.59900      2.59772         0.094091     -0.496158     -0.179713
O      13.68657      0.00393     14.98184        -0.395542     -0.230739      0.297809
O       1.98129      3.90895      6.50039         0.495683      0.691363      0.684608
O       1.82928      0.03188      6.72752         0.248543     -0.367324      0.038599
O      13.62631      3.93467      6.64575         0.240889     -0.491274     -0.292836
O      13.62330     15.58919      6.42255         0.484104      0.482245      0.622607
O       1.79322      3.82293     10.85988         0.964292      0.397943     -0.306114
O       2.00604     15.50080     10.83738        -0.158738      0.995319     -0.356755
O      13.61431      3.78940     10.67736         0.198311      0.503806      0.250936
O      13.50721     15.59452     10.90359         0.686245     -0.118509     -0.474622
O       2.06378      7.71906      2.47367        -0.409688      1.286784      0.017323
O       1.98874      7.69062     15.03091        -0.081802      0.527552     -0.133562
O      13.67414      7.89442      2.47762         0.064461     -0.650373     -0.094972
O      13.73000      7.89249     15.11050        -0.390195     -0.525372     -0.417412
O       1.84241      7.77376      6.65783         0.068699      0.550968      0.174187
O      13.67417      7.75461      6.58317        -0.204435      0.095117      0.217305
O       1.74004      7.75060     10.82819         1.057956      0.597722      0.222519
O      13.61167      7.70865     10.82842        -0.047126      0.214835      0.017092
O       1.94966     11.65536      2.60175         0.758892      0.539239      0.475887
O       1.93396     11.59680     14.94023        -0.106203      1.226952      0.070057
O      13.73920     11.70712      2.59215         0.131656      0.638463     -0.052664
O      13.72675     11.75509     15.01437        -0.256624     -0.721886     -0.076460
O       1.91974     11.63687      6.72052         0.233574      0.131770     -0.447059
O      13.66236     11.70486      6.56854        -0.282902     -0.475361      0.875146
O       1.77454     11.71292     10.89603         0.449457     -0.700753     -0.092811
O      13.74087     11.67002     10.78393        -0.381495      0.245449      0.405319
O       5.85325      3.89899      2.58080         0.087136     -1.527705      0.423451
O       5.92945      3.77441     15.08409        -0.552891      0.938574     -1.132788
O       5.85749     15.55590      2.55714        -0.361764      0.310521     -0.322216
O       5.70959     15.59291     14.87854         0.325933     -0.927082      0.166061
O       5.75952      3.78320      6.68719         0.015720      0.793907      0.145918
O       5.91974     15.55646      6.93076        -0.207743      0.622837     -0.397341
O       5.89514      3.97971     10.78883        -0.319313     -0.846184     -0.008772
O       5.88883     15.57785     10.92496        -0.421057     -0.372412     -0.387283
O       5.70592      7.72572      2.55998         0.759449      0.786224     -0.302047
O       5.73621      7.66772     15.16910         0.249525      0.001922     -1.028371
O       5.93711      7.78006      6.69355        -0.309631     -0.237863      0.158031
O       5.82588      7.74450     10.71988         0.111890      0.320650      0.721919
O       6.01415     11.65997      2.49411        -0.781204      0.044637     -0.395145
O       5.92491     11.59465     14.96504        -0.036913      0.504896      0.338200
O       5.71328     11.62297      6.79507         0.418855      0.220931     -0.347971
O       5.89450     11.57320     11.03221        -0.300449      0.875503     -0.549775
O       9.86852      3.84334      2.52268        -0.531016      0.761050     -0.218537
O       9.61639      3.84555     15.02327         0.277054      0.626777      0.205155
O       9.74224      0.02863      2.57155        -0.054210     -0.987573      0.103893
O       9.60150     15.52143     14.91858         0.482047      0.559530      0.220337
O       9.79624      3.79530      6.76935        -0.186379      0.813687      0.180472
O       9.72229     15.48068      6.70635         0.066199     -0.120422     -0.115506
O       9.70191      3.83796     10.79113         0.072101      0.042585     -0.089558
O       9.73045     15.55752     10.97162        -0.062345      0.218990     -0.048082
O       9.88236      7.75401      2.58973        -0.731731      0.533708     -0.700573
O       9.77345      7.73750     14.83881         0.010171      0.648599      0.823177
O       9.65999      7.72563      6.49597         0.315003      0.447710      0.237598
O       9.79246      7.77533     10.87829        -0.541012     -0.280900      0.307629
O       9.69920     11.74780      2.37354        -0.314597     -0.296572     -0.097130
O       9.75961     11.73300     14.98733        -0.254006     -1.849247      0.625623
O       9.68569     11.60031      6.79112         0.296967      0.507023     -0.434962
O       9.71292     11.62652     10.95110        -0.019664      0.233715     -0.676503
