  # total energy = -7880.23682822 
CRSYTAL
PRIMVEC
    15.6080000000000005    0.0000000000000000    0.0000000000000000
     0.0000000000000000   15.6080000000000005    0.0000000000000000
     0.0000000000000000    0.0000000000000000   16.6239999999999988
PRESSURE
-0.971795 -0.873537 -1.28062 -0.328673 0.390667 -0.056545
PRIMCOORD
320 1
Pb       4.00990      3.88771      4.11074         0.105619      0.077368      0.230764
Pb       4.08751      4.03830      0.15030        -0.154388     -0.191143     -0.429330
Pb       3.90220      0.03298      3.96811        -0.123050     -0.288476      0.205422
Pb       3.77767     15.57278     16.58746         0.294430     -0.032608      0.062439
Pb       0.08204      3.82931      4.18435        -0.287970     -0.058950     -0.658983
Pb      15.53622      3.79017     16.59738         0.311506     -0.054019      0.048695
Pb      15.56058     15.49863      4.00646         0.088255      0.373929     -0.185124
Pb      15.54493     15.57273     16.56610         0.272434     -0.117227      0.306179
Pb       3.65133      3.72743      8.32224         0.906742      0.498720     -0.461475
Pb       3.86420      0.04821      8.20836        -0.044553     -0.173755     -0.265657
Pb      15.47872      3.79929      8.29435         0.219948      0.077206     -0.093392
Pb       0.04919     15.56934      8.22429        -0.069208     -0.093098     -0.611571
Pb       3.82021      3.90468     12.47493        -0.118654     -0.020993     -0.271395
Pb       3.83374     15.44651     12.42586         0.237147     -0.034150      0.310681
Pb       0.04835      3.91300     12.50247        -0.309339      0.224280     -0.200723
Pb       0.02463      0.26232     12.69470         0.024964     -0.103289     -0.263720
Pb       3.79609      7.89787      4.19964         0.179781     -0.007270     -0.483806
Pb       3.84449      7.74733     16.55386        -0.115129      0.129284      0.449134
Pb       0.13138      7.89612      4.24826        -0.239888     -0.128319     -0.455584
Pb       0.01849      7.75093     16.58975        -0.274640     -0.169908     -0.719124
Pb       3.92056      7.67209      8.25287        -0.191944      0.234762     -0.034781
Pb      15.30028      7.71990      8.63391         0.293094     -0.114292     -0.440286
Pb       3.93115      7.84703     12.41231         0.245618     -0.065663     -0.436054
Pb      15.53669      7.95235     12.60072        -0.317235     -0.517015     -0.167271
Pb       3.81284     11.69948      4.03753         0.273092     -0.355337     -0.115789
Pb       3.86016     11.69389     16.50553         0.159275     -0.069485      0.427006
Pb      15.54963     11.67036      4.03096        -0.021559     -0.129177      0.059175
Pb      15.55031     11.81848     16.57170        -0.278196     -0.141734     -0.408458
Pb       3.82650     11.71830      8.10874         0.322154     -0.121429      0.854840
Pb      15.59758     11.61639      8.27415         0.123839      0.494732     -0.151816
Pb       3.99188     11.63282     12.30777        -0.371059      0.316135      0.029587
Pb       0.19631     11.61350     12.37533        -0.067697     -0.206430      0.680344
Pb       7.80876      3.66428      4.19453        -0.329871      0.391741     -0.261974
Pb       7.80936      4.00037      0.03232        -0.361017      0.466123     -0.307480
Pb       7.71290     15.45642      4.04772         0.345159      0.279956      0.090219
Pb       7.85993      0.18421      0.09149        -0.402581     -0.649992     -0.408586
Pb       7.59869      3.91791      8.39068         0.563495     -0.420560     -0.298952
Pb       7.89560     15.57360      8.28134        -0.050477      0.142704     -0.204625
Pb       7.71507      3.71347     12.43001         0.334791     -0.159778     -0.427972
Pb       7.65019     15.54596     12.53640         0.432441      0.099424     -0.594840
Pb       7.74943      7.84225      4.17805         0.089996      0.413836     -0.225687
Pb       7.68370      7.92125     16.58123         0.467435     -0.262005      0.109862
Pb       7.83829      7.72688      8.21571         0.063590      0.083742      0.185882
Pb       7.77121      7.61995     12.43219        -0.197126      0.396091     -0.567230
Pb       7.95636     11.74160      4.28233        -0.285545     -0.401061     -0.623844
Pb       7.61092     11.74633     16.58254         0.467070      0.340250      0.288617
Pb       7.68690     11.75635      8.16557         0.470799     -0.186938      0.312232
Pb       7.72543     11.50738     12.39404        -0.341890      1.027857     -0.158790
Pb      11.87710      3.83031      4.39666        -0.312776     -0.101778     -0.895569
Pb      11.79644      4.08106      0.20539        -0.231364     -0.159714     -0.640581
Pb      11.56411     15.43465      4.17129        -0.009379      0.262590     -0.231185
Pb      11.57969     15.50145      0.02697        -0.118539     -0.065848     -0.466535
Pb      11.73854      4.15172      8.48033         0.179514     -0.554290     -0.242076
Pb      11.64902      0.17236      8.32067         0.196826     -0.336706     -0.426776
Pb      11.81224      3.82073     12.63488         0.077544      0.097091     -1.002688
Pb      11.70279     15.59797     12.43696        -0.338593      0.199713     -0.057163
Pb      11.77508      7.64011      4.15519        -0.318091      0.577713     -0.193981
Pb      11.49378      7.80941      0.02421         0.229723     -0.080263     -0.229471
Pb      11.59222      7.88373      8.32050         0.120325     -0.085192      0.190879
Pb      11.43618      8.00393     12.68711         1.074030     -0.877166     -0.917024
Pb      11.77650     11.29602      4.24986        -0.169914      0.483532      0.012114
Pb      11.73008     11.73924     16.52096        -0.345980      0.258740     -0.371647
Pb      11.96586     11.96414      8.53172        -0.541743     -0.028229     -0.294736
Pb      11.56008     11.89732     12.38219         0.716834     -0.848114      0.917986
Ti       1.93202      1.96238      2.12217        -0.930521     -1.071645     -0.562615
Ti       1.96537      1.91035     14.83266         0.470891     -0.158178     -0.273791
Ti       1.88526     13.63084      2.12576         0.442188      0.362696     -0.439070
Ti       1.97061     13.52443     14.76295        -0.541324      1.254990     -1.632740
Ti      13.53837      1.90814      2.07411         0.808111     -0.734444      1.659141
Ti      13.48281      1.92388     14.76940        -0.400598     -0.051722     -0.592133
Ti      13.52298     13.56117      2.16684         0.891912      0.929226     -0.292634
Ti      13.61233     13.70633     14.58322         0.005928     -1.351370      0.051856
Ti       1.94055      2.04255      6.12135         0.124198     -2.214668      0.453696
Ti       1.96746     13.66228      6.30355        -0.819281      0.328852      0.464922
Ti      13.68005      1.88103      6.23547        -0.115266     -0.250282      0.096740
Ti      13.65296     13.67213      6.27413         0.017754     -0.443006     -0.120316
Ti       1.94742      1.90084     10.51300        -0.122766      0.630061      1.560840
Ti       1.87160     13.70699     10.52881         1.885722     -1.125903     -0.280153
Ti      13.66889      1.82696     10.50894        -0.107157      1.081273      0.441703
Ti      13.85060     13.60809     10.65019        -1.255907      0.328581     -0.842466
Ti       1.94557      5.76054      2.22613         0.473851      0.721365     -0.698156
Ti       1.98918      5.74452     14.81675        -0.807392     -0.038195     -0.448257
Ti      13.69993      5.82236      2.16204        -0.110063      0.027740      0.464553
Ti      13.65607      5.82183     14.63394         0.366921      0.832286     -0.165683
Ti       1.97301      5.87281      6.30089         0.312687      0.146197      0.952821
Ti      13.76732      5.74738      6.35030         0.149019      0.569102      0.155432
Ti       2.03443      5.80708     10.36493        -0.357669      0.214772      0.087089
Ti      13.73114      5.76684     10.59224        -1.014921      0.137211      0.827573
Ti       1.86474      9.66504      2.05222         1.204303      0.449937      1.011721
Ti       1.92746      9.71363     14.66109        -0.533065     -0.198076     -0.154927
Ti      13.65141      9.63896      2.00458        -0.518413      0.032319      0.953064
Ti      13.56579      9.78940     14.53831         1.380645      0.106276      0.274988
Ti       1.90700      9.77364      6.35049         0.783975     -0.534895     -0.621383
Ti      13.64762      9.67875      6.49683        -0.269265      0.345891     -1.200624
Ti       1.96728      9.62050     10.45878         0.657288      0.478431      0.593981
Ti      13.58720      9.73698     10.54138        -0.414608     -0.355620      0.520906
Ti       5.82403      1.88044      2.14733         0.092687      0.068965      0.778067
Ti       5.80703      2.00254     14.72423         0.061519     -0.345172      0.372283
Ti       5.74183     13.68148      2.04191         1.176420     -0.460777      0.989344
Ti       5.82444     13.70612     14.61149        -0.027926      0.260821      0.453640
Ti       5.83650      1.96209      6.38613        -0.007530      0.194682     -0.439221
Ti       5.82917     13.73516      6.28083        -0.183422     -0.346959      0.216829
Ti       5.81193      1.84973     10.48520         0.753266      0.583821     -0.692971
Ti       5.86390     13.69293     10.35748         0.040238     -0.849488      1.288071
Ti       5.87808      5.88860      2.33495         0.154870     -0.049675     -0.405214
Ti       5.85048      5.95243     14.51994         0.446879     -1.400960      0.422738
Ti       5.90410      5.83022      6.39839        -0.314277     -1.515498     -1.429439
Ti       5.91300      5.74569     10.39024        -0.871838      1.027489      1.507128
Ti       5.75409      9.80123      2.11235         0.587932     -0.129543      0.822326
Ti       5.78401      9.78860     14.66054        -0.047631      0.217095     -0.509742
Ti       5.80193      9.80342      6.33606         0.096639      0.260152     -0.849218
Ti       5.87496      9.70918     10.37617        -0.639191     -0.033140      0.120739
Ti       9.70728      1.88042      2.23930         0.300638      0.180859      2.480460
Ti       9.61438      1.97906     14.55257         1.045479     -0.735577     -0.748702
Ti       9.67466     13.56343      2.15013        -0.243559     -0.145557      0.303962
Ti       9.67062     13.66203     14.58730         0.570234      0.164409      0.302369
Ti       9.70006      1.93795      6.34835         0.044564     -0.991676     -0.486076
Ti       9.74877     13.57208      6.38387         1.026591      0.338042     -0.873575
Ti       9.80934      2.00493     10.41472        -0.801664     -0.316994      0.876353
Ti       9.78619     13.65838     10.47264        -0.823681      0.157468     -0.549571
Ti       9.71886      5.79935      2.28030        -0.367453      0.044279      0.607584
Ti       9.77124      5.79142     14.49603        -0.182403      0.510437      1.313658
Ti       9.82427      5.70001      6.32449        -0.569768      0.495710      1.304798
Ti       9.80643      5.85037     10.43483         0.720904      0.102857     -0.056793
Ti       9.71123      9.73101      2.23898        -0.522367     -0.140758      0.456956
Ti       9.67447      9.77774     14.63892         0.114234     -0.285715      1.069935
Ti       9.71239      9.69105      6.42930         0.208443      0.311713     -0.636905
Ti       9.69861      9.80905     10.44933         0.551442     -0.650069     -1.250196
O       1.93949      1.85777      0.30322         0.115495     -0.014360      0.137921
O       1.93214      2.06455     12.99301        -0.011406     -0.390730     -0.597981
O       1.90475     13.66288      0.30953        -0.292544     -0.508707      0.389120
O       2.05122     13.55013     12.96642         0.059509      0.290720     -0.582013
O      13.51440      1.85824      0.28385        -0.183365     -0.097908     -0.150550
O      13.59823      1.79748     12.92918         0.217114      0.391621      0.599610
O      13.73373     13.58089      0.32528        -0.208689     -0.295696      0.720562
O      13.41975     13.58372     12.78889         0.713329      0.488093      0.097126
O       1.89666      1.95018      4.33169         0.235735      0.165361      0.344854
O       2.03377     13.57434      4.56184        -0.106915      0.014248     -1.353958
O      13.69044      1.95235      4.42716         0.152726      0.485941      0.820312
O      13.58017     13.58133      4.47079         0.043985      0.016966      0.167550
O       1.93366      1.81892      8.81188         0.155761     -0.006696     -1.562306
O       1.72976     13.57152      8.74264         0.202137      0.488957      0.562614
O      13.75191      1.91550      8.74122        -0.023173     -0.014829     -0.400675
O      13.81519     13.62025      8.79304         0.156460     -0.122606      0.643265
O       2.11820      5.89039      0.39436        -0.186613     -0.375515      0.644387
O       1.84742      5.58193     13.04794         0.528258      0.058385     -0.554011
O      13.46290      5.87096      0.38105         0.302245     -0.241293      0.191687
O      13.77862      5.75440     12.80970        -0.026403     -0.094362      0.628470
O       1.92753      5.75545      4.52205        -0.209536     -0.073135     -0.639176
O      13.84647      5.64443      4.56049        -0.549680      0.245353     -0.314299
O       2.07982      5.99465      8.56537        -0.186296     -0.391150      0.891338
O      13.67080      5.70923      8.75916         0.217749     -0.219932     -0.379336
O       1.97945      9.57194      0.29435        -0.070671      0.218346     -0.255963
O       2.07338      9.81923     12.87136        -0.432195     -0.731628      0.111606
O      13.59864      9.65019      0.25145         0.183852      0.182208      0.136106
O      13.69239      9.64193     12.72074        -0.280920     -0.151105      0.558992
O       1.91063      9.72284      4.50074        -0.272279      0.249619      0.129286
O      13.62637      9.70946      4.62736         0.513971     -0.342556      0.835050
O       2.01175      9.49883      8.69482        -0.117925      0.446899      0.050535
O      13.61901      9.54174      8.70062         0.501103      0.653722     -0.275946
O       5.93173      1.88853      0.39247        -0.026658      0.363431     -0.935251
O       6.06149      1.93359     12.95679        -0.425998      0.132120     -1.312575
O       5.88057     13.71392      0.29612        -0.085071     -0.382167     -0.414828
O       5.78085     13.64213     12.81588         0.182196      0.168960      0.317550
O       5.86336      1.94787      4.57428        -0.148203     -0.043105      0.312517
O       5.75068     13.72500      4.51781        -0.008641     -0.275228      0.014583
O       5.74771      1.92546      8.67721         0.215019     -0.179781      0.230927
O       5.85836     13.69508      8.58870         0.157086     -0.120439      0.076072
O       5.86411      5.70914      0.46929         0.062254      0.295121      0.128270
O       5.89004      5.87672     12.73018         0.171477     -0.098311      0.616673
O       6.06166      5.69443      4.54273        -0.719958      0.130242      0.523362
O       5.79417      5.83929      8.64682         0.277875     -0.289762     -0.827838
O       5.77789      9.62454      0.30306         0.298956      0.125297     -0.006601
O       5.84086      9.81617     12.85804         0.209193     -0.181040      0.520333
O       5.90266      9.85177      4.53217        -0.389750     -0.601960      0.714648
O       5.76206      9.75942      8.60765         0.229979     -0.067003     -0.378627
O       9.73361      1.86998      0.53640        -0.088038      0.424588     -2.382311
O       9.65284      1.79583     12.74673        -0.046396      0.211260      1.194664
O       9.67796     13.41309      0.36187         0.027706      0.080782      0.222994
O       9.89059     13.75771     12.79882        -0.216104     -0.408780      0.161232
O       9.59777      1.69292      4.50103         0.507618      0.366284      1.281677
O       9.86377     13.69067      4.47891        -0.433752     -0.086738      1.146342
O       9.82216      1.91625      8.60504         0.157151      0.088161      0.300980
O       9.74337     13.40068      8.62851         0.064562      0.416710      0.890662
O       9.78305      5.83217      0.50005         0.283174     -0.352649     -0.395325
O       9.70855      6.10958     12.77793         0.342056     -0.197463     -1.169543
O       9.78768      5.91531      4.60833        -0.169122     -0.123272     -1.156290
O       9.79375      5.71431      8.60300         0.605692     -0.021154      0.580286
O       9.69581      9.75569      0.45223         0.158325     -0.047148     -0.358470
O       9.73314      9.44830     12.88259        -0.762555      0.969994     -0.717132
O       9.71163      9.60757      4.56571         0.000584      0.288243      0.879419
O       9.68583      9.83680      8.62073         0.128323     -0.004795      0.627763
O       3.84426      1.76714      2.35152         0.568305      0.303874      0.249637
O       4.01407      1.72443     15.00137        -1.426462      0.526825     -0.157729
O       3.92009     13.86585      2.31914        -1.342331     -0.772497      0.415695
O       3.83258     13.56984     15.00214         1.336020      0.188552      0.136033
O       0.00611      1.98745      2.27944        -0.819214      0.114123      0.297247
O      15.58264      1.82781     15.03011        -0.407400      0.413050     -0.315728
O       0.04267     13.53178      2.44622        -0.605289     -0.249463      0.303846
O      15.59091     13.57895     14.85785        -0.903370      0.212895      0.213339
O       3.87625      2.01600      6.56496        -0.014696     -0.512332      0.193377
O       3.85047     13.55097      6.65269         0.895621      0.516920      0.058893
O       0.08020      1.91256      6.48962        -0.879983     -0.258705      0.441097
O      15.57687     13.79497      6.49103        -0.042637     -0.651726      0.286347
O       4.00682      1.93479     10.83424        -1.278824     -0.070264      0.397685
O       3.97295     13.74405     10.74967        -0.914894     -0.293134     -0.198197
O      15.60390      1.98291     10.85325         1.061295     -0.286312      0.228455
O       0.11099     13.63211     11.07194        -1.013360      0.204471     -0.362329
O       3.90984      5.89455      2.61850        -0.015539     -0.583082     -0.096777
O       3.95110      5.91500     14.95272         0.602991     -0.029138     -0.243504
O       0.02831      5.76487      2.43297        -0.171613     -0.175710     -0.210813
O      15.59691      5.77859     15.13332         0.529603     -1.024226      0.057741
O       3.90153      5.54516      6.66486         0.020905      0.889771     -0.570766
O       0.06598      5.72530      6.64877         0.110872      0.354645      0.150439
O       3.96839      5.79502     10.83684         0.163513     -0.026109     -0.111892
O       0.06141      5.68403     10.68073         1.066779      0.123156      0.066188
O       3.88778      9.59174      2.52374        -0.254718      0.240668     -0.210143
O       3.87234      9.67049     14.91564         0.504812     -0.072052      0.150092
O       0.00608      9.78708      2.30894        -0.915837     -0.167431      0.337657
O      15.56711      9.72890     14.77159         0.668645     -0.020453      0.405481
O       3.86144      9.95179      6.50900         0.589930     -0.665354      0.259108
O       0.11888      9.76022      6.65065        -2.005875     -0.551328      0.276009
O       3.98753      9.74994     10.78972        -0.899839     -0.477970      0.128141
O       0.03292      9.64904     10.82978         0.876106     -0.256518     -0.338755
O       7.73361      1.74536      2.48264         0.722878      0.897237     -0.012062
O       7.73746      2.02430     14.99588         1.355237     -0.086078      0.488618
O       7.68639     13.60447      2.40091         1.044573     -0.691111      0.354450
O       7.81818     13.59931     14.86288        -0.416148     -0.684898     -0.100934
O       7.82911      1.89828      6.72040        -0.073084     -0.149872     -0.038334
O       7.81987     13.63968      6.60038        -0.754440      0.528359     -0.116907
O       7.88427      1.82872     10.75769        -0.385773      0.172732     -0.157139
O       7.85833     13.67638     10.80623        -0.600353     -0.262178     -0.274684
O       7.76601      5.59901      2.43191         0.797686      0.607657      0.228546
O       7.90175      5.83157     14.79366        -1.304976     -0.082749      0.637511
O       7.88133      5.73054      6.74293        -0.460522      0.525106     -0.133444
O       7.89636      5.89082     10.60025        -0.773261     -0.027199      0.497506
O       7.67894      9.83420      2.53604         1.034559     -0.266766     -0.368810
O       7.78339      9.84483     15.02312         0.277224     -0.269760     -0.336604
O       7.71103      9.57442      6.68619         0.473455      0.275433     -0.277772
O       7.81766      9.83940     10.81880        -0.176062     -0.653941     -0.306948
O      11.68242      1.72424      2.62661        -0.138226      0.471082     -0.781025
O      11.56130      1.95338     14.86151         0.681428     -0.304104      0.220279
O      11.71568     13.78208      2.20482        -0.481906     -0.281589      0.374898
O      11.61429     13.66159     15.05637         0.445277     -0.075199     -0.000358
O      11.82934      1.95118      6.58587        -0.842621     -0.131976     -0.214157
O      11.70589     13.55561      6.72603         0.446168     -0.056197     -0.158593
O      11.69677      1.80539     10.78761         0.714455      0.471250     -0.094819
O      11.79795     13.41658     10.71538        -0.123977      0.630993     -0.585395
O      11.76261      5.85880      2.64206        -0.395948     -0.439851     -0.342685
O      11.72628      5.78473     14.85233        -0.261391      0.295234      0.115080
O      11.77689      5.68738      6.55799        -0.252145      0.168422      0.084968
O      11.72890      5.71461     10.73772        -0.007375      0.030784     -0.036034
O      11.67253      9.60078      2.44476         0.779840      0.161815      0.146130
O      11.76942      9.59988     14.86384        -0.807472     -0.081143      0.087946
O      11.70485      9.71499      6.64738         0.201653      0.112087      0.025228
O      11.71036      9.83734     10.73563         0.149074     -0.371846      0.143721
O       1.97019      3.83788      2.33273         0.420574      1.042027      0.362603
O       2.14976      3.76078     15.07615        -0.399612      1.128882      0.431222
O       1.82556     15.55700      2.35986         0.070246     -0.329735      0.498230
O       1.93435     15.53861     15.01444        -0.113537      0.143950     -0.255450
O      13.54023      3.82527      2.22694        -0.102229      0.320157      0.399839
O      13.55098      3.84230     15.02044         0.451180     -0.233838      0.036706
O      13.80427     15.56629      2.51349        -0.497372     -0.359331     -0.684717
O      13.49036     15.51427     14.97410         0.550422      0.955364     -0.068941
O       1.90976      3.77804      6.57923        -0.105679      1.386408      0.309246
O       1.99287     15.56458      6.68358         0.191174      0.433667     -0.175052
O      13.76796      3.86087      6.67925        -0.176352     -0.575211     -0.203015
O      13.63452     15.57380      6.60241         0.030571      0.237328     -0.087669
O       2.22868      3.89735     10.50367        -0.820142     -0.397067      1.014187
O       1.98164      0.00304     10.85800        -0.182506     -0.222606      0.141731
O      13.70020      3.81247     10.95926        -0.394080     -0.340768     -0.368723
O      13.73895     15.56963     10.88725         0.112107     -0.666546     -0.135056
O       1.92126      7.78064      2.47339        -0.339277     -0.307341      0.450421
O       1.91897      7.68207     14.99623        -0.015792      0.951668     -0.312727
O      13.72066      7.74256      2.49721         0.126973      0.470350     -0.120522
O      13.88911      7.66524     14.88918        -0.825941      0.919328     -0.295257
O       2.09373      7.80596      6.36631         0.104613     -0.887294      0.315379
O      13.71157      7.68906      6.80308         0.040589      0.318951     -0.650189
O       2.18964      7.69177     10.90585        -1.044367      0.468470     -0.397764
O      13.77614      7.70048     10.70937         0.115642      0.188736      0.137978
O       2.01216     11.64086      2.35601         0.207800      0.235122      0.118767
O       1.93417     11.63230     15.04299        -0.099453     -0.620375      0.169318
O      13.59633     11.63853      2.49524        -0.039250     -0.374649     -0.373272
O      13.56346     11.72971     14.81294         0.000445     -1.008100      0.531109
O       1.89482     11.71437      6.69534        -0.270048      0.009707      0.073365
O      13.75286     11.65187      6.66313         0.001730      0.043268      0.350667
O       1.99734     11.62680     10.85609        -0.159465      0.282620     -0.688703
O      13.80654     11.60347     10.71538         0.300773      0.684631     -0.003852
O       5.76020      3.73000      2.56045         0.021957      0.876805     -0.377951
O       5.74951      3.91652     14.95738         0.351533      0.535411     -0.039768
O       5.89229     15.58475      2.48525        -0.444533     -0.316961      0.045293
O       5.88518     15.52491     14.92125         0.253651      0.196476     -0.160772
O       5.95500      3.85451      6.72647        -0.062261     -0.306393     -0.114314
O       5.82989      0.02360      6.60690        -0.173349     -0.502152      0.260775
O       6.01687      3.86030     10.69324        -0.118779      0.146986      0.187000
O       5.84854     15.59806     10.72992         0.377940     -0.442648      0.342553
O       5.92963      7.75839      2.49757         0.096610     -0.241704      0.019735
O       6.04070      7.81617     14.81104        -0.478435     -0.346978      0.226266
O       5.75862      7.64678      6.56412        -0.034537      1.391945      0.087893
O       5.87103      7.81091     10.62620         0.185129     -0.508361      0.526019
O       5.64427     11.66065      2.34020        -0.104458      0.718838     -0.291197
O       5.79582     11.69634     15.03403        -0.011632     -0.226972     -0.267517
O       5.89956     11.72077      6.55637         0.022798      0.084665      0.258773
O       5.79008     11.66208     10.77135         0.854888      0.915099     -0.314616
O       9.69078      3.83010      2.61895         0.670251     -0.116006     -0.342587
O       9.77728      3.90051     14.59827        -0.338766     -0.148111      0.556111
O       9.59561     15.45991      2.39157         0.538090      0.134213     -0.057419
O       9.64048     15.58747     14.97886         0.118023      0.175169      0.125052
O       9.79091      3.77344      6.46889         0.108534      0.872068     -0.132438
O       9.82460     15.51101      6.76597        -0.075904      0.565752     -0.080090
O       9.83399      3.85755     10.84480        -0.290764      0.084728     -0.237620
O       9.92254     15.48965     10.68801        -0.124325      0.230257     -0.553931
O       9.70551      7.78299      2.55926        -0.311585     -0.683014     -0.213019
O       9.83669      7.82058     15.00628        -0.466277     -0.395167      0.071323
O       9.79309      7.80643      6.74857        -0.146702     -0.843132     -0.114743
O       9.89443      7.84554     10.58535        -0.361363     -0.480860      0.255352
O       9.84927     11.63167      2.74738        -0.348584      0.282444     -0.884104
O       9.93615     11.60886     14.74409        -0.452408      0.487708      0.201602
O       9.52858     11.67860      6.45632         0.210131     -0.663812      0.006827
O       9.77574     11.64023     10.94014        -0.538389      0.473051     -0.183666
