  # total energy = -7878.49476769 
CRSYTAL
PRIMVEC
    15.6080000000000005    0.0000000000000000    0.0000000000000000
     0.0000000000000000   15.6080000000000005    0.0000000000000000
     0.0000000000000000    0.0000000000000000   16.6239999999999988
PRESSURE
-0.63972 -0.679726 -0.010181 -0.030872 -0.412448 -0.057945
PRIMCOORD
320 1
Pb       3.74119      3.83797      4.13781         0.593533     -0.101750      0.132230
Pb       3.74081      3.73848     16.59371         0.268895     -0.013809     -0.498251
Pb       3.93779     15.43054      4.32135        -0.104866      0.305956     -0.855204
Pb       4.00570     15.60777      0.07440        -0.105655     -0.305284     -0.267187
Pb      15.58900      3.89175      4.14213        -0.058526     -0.205333      0.896196
Pb      15.58665      3.96756     16.61183         0.112180     -0.067145     -0.194266
Pb       0.09958     15.59726      4.31116        -0.364597     -0.157932     -0.440889
Pb      15.59744     15.55626      0.03349         0.557109     -0.094404     -0.048714
Pb       4.05291      4.05794      8.30793        -0.426470     -0.568735     -0.035609
Pb       3.88340      0.01206      8.47706        -0.090939     -0.206871     -0.564860
Pb       0.11954      3.95107      8.25632        -0.239973     -0.334848     -0.757125
Pb      15.60344      0.07044      8.36952        -0.128029     -0.434509     -0.586931
Pb       3.96413      3.88513     12.32197        -0.743789     -0.201789      0.080037
Pb       3.93211      0.13397     12.34547         0.389612     -0.369562      0.471570
Pb      15.49289      3.80669     12.34370         0.830245      0.372210      0.268499
Pb      15.45199     15.55128     12.31938         0.487963     -0.277670      0.199171
Pb       3.94472      7.66214      4.24233         0.125349      0.219446     -0.891775
Pb       3.85931      7.84483      0.05295        -0.112345     -0.242709     -0.451291
Pb      15.49884      7.73040      4.13845         0.175427      0.378397     -0.563278
Pb       0.01801      7.78503      0.01679        -0.113487     -0.045665      0.224961
Pb       3.92817      7.86170      8.26617         0.106854     -0.340619      0.134538
Pb       0.20454      7.88087      8.01096        -1.205676     -0.610071      1.177683
Pb       3.76017      7.79979     12.48585        -0.141760      0.345077     -0.136187
Pb       0.04834      7.73393     12.39348        -0.109346      0.249324      0.009695
Pb       4.00721     11.58958      4.29352        -0.361075      0.452310     -0.398150
Pb       3.91616     11.63588     16.60593        -0.661313      0.604032      0.774701
Pb       0.06717     11.67693      4.25646         0.004077      0.179931     -0.824717
Pb       0.02817     11.60469     16.58475         0.147133      0.205139      0.503523
Pb       3.89178     11.46880      8.34154         0.003124      0.670217     -0.019610
Pb      15.57254     11.72874      8.40257        -0.043128     -0.191616     -0.214430
Pb       3.78351     11.73044     12.61390        -0.171730      0.104637     -0.929689
Pb      15.36268     11.74864     12.45946         0.580937     -0.370462     -0.323110
Pb       7.86915      4.07402      4.13012        -0.536005     -0.178374     -0.228435
Pb       7.73450      3.71754      0.12541        -0.417319      0.020008     -0.398806
Pb       7.88084      0.05293      4.17095        -0.799160     -0.374263     -0.125692
Pb       7.81195     15.41476     16.56163        -0.411630     -0.000908     -0.312985
Pb       7.87406      3.96594      8.06366        -0.279553     -0.305729      1.734902
Pb       7.70657     15.58585      8.37461         0.453885      0.076469     -0.477052
Pb       7.78788      4.11501     12.51072         0.332613     -0.557184     -0.510356
Pb       7.79418      0.07751     12.41796        -0.106655     -0.469247      0.343672
Pb       7.75199      7.76253      4.13172         0.037752      0.248973     -0.676534
Pb       7.89117      7.64818      0.04993        -0.728801      0.058351     -0.076654
Pb       7.68695      7.77628      8.39710         0.394782     -0.036467      0.090358
Pb       7.67761      7.97833     12.59087         0.554428     -0.214757     -0.860558
Pb       7.75386     11.64180      4.14908         0.282383      0.246697     -0.079886
Pb       7.91420     11.51869      0.05765        -0.611258      0.964542     -0.145684
Pb       7.74784     11.57565      8.46262         0.610136     -0.009838     -0.665650
Pb       7.70404     11.78232     12.54683         0.310501     -0.083729     -0.764503
Pb      11.55749      3.99121      3.94189         0.279485     -0.179338      0.981745
Pb      11.62350      3.66777     16.43511         0.277625      0.363568      0.050978
Pb      11.96841      0.16347      4.18158        -0.227391     -0.090278     -0.083605
Pb      11.78551     15.58237      0.04189        -0.318914      0.000491     -0.892389
Pb      11.70656      3.62329      8.06977        -0.373873      1.226287      0.809363
Pb      11.79721     15.40565      8.28422        -0.605166      0.253603      0.190869
Pb      11.53512      3.95939     12.36105        -0.164369     -0.598113      0.253608
Pb      11.81990      0.05005     12.57450        -0.729975      0.122777     -0.161830
Pb      11.65976      8.02903      4.15067        -0.072030     -0.518488      0.131093
Pb      11.71132      7.73923     16.55655         0.339490     -0.188681     -0.075006
Pb      11.71426      7.74480      8.23752         0.163163     -0.106084     -0.171211
Pb      11.91017      7.52394     12.39167        -0.523404      1.059446      0.725212
Pb      11.54321     12.07430      4.09921        -0.054482     -0.945217      0.528109
Pb      11.67684     11.74973      0.05156        -0.046355     -0.262301     -0.597738
Pb      11.53830     11.48651      8.10878         0.251944      0.617079      0.832243
Pb      11.64822     11.53133     12.52358        -0.172620      0.489902     -0.396003
Ti       1.91157      1.99861      2.19832         0.043681     -0.986612     -0.721423
Ti       1.83194      2.02769     14.50925         1.702509     -0.742832      0.737938
Ti       1.89315     13.74742      2.21791        -0.013794     -0.866925     -1.428930
Ti       1.85914     13.75801     14.65514         0.224488      0.338906     -0.296756
Ti      13.67147      2.02177      2.22123         0.229331     -0.498080      0.685155
Ti      13.77292      1.84504     14.63104        -1.228342      0.155607     -1.452488
Ti      13.61620     13.66223      2.19039         1.114786      0.737363      0.265462
Ti      13.63191     13.49091     14.68214        -0.282619      0.781686     -0.076646
Ti       2.08592      1.82324      6.36281        -1.097294      1.135203      0.253275
Ti       1.92319     13.56644      6.46977        -0.010279      0.031377     -0.206462
Ti      13.67356      1.86979      6.41039         0.885498      0.372446     -0.740856
Ti      13.61552     13.53469      6.37958         0.424495      0.781025     -0.075276
Ti       1.88044      1.84794     10.47937         0.526723      1.581776      0.029917
Ti       1.94355     13.58977     10.48863        -0.377883     -0.684470      0.807727
Ti      13.59086      1.96379     10.44375        -0.543388     -0.167082      2.247867
Ti      13.46671     13.66840     10.40321         0.705077     -1.344178      0.374894
Ti       1.83459      5.86971      2.20972         0.777563      0.807905     -0.033509
Ti       1.89150      5.91891     14.62838        -0.023910     -0.982186     -1.056436
Ti      13.54999      5.81345      2.27527         0.344999      0.583861     -0.328523
Ti      13.62034      5.66329     14.66449         0.315027      1.465063      0.347442
Ti       2.02745      5.72962      6.36419        -0.685785     -0.256567      0.183498
Ti      13.61671      5.83802      6.27417        -0.166702     -0.379362      1.428261
Ti       1.89226      5.88070     10.39825         0.844191     -0.499846      1.552339
Ti      13.72026      5.77839     10.36540        -0.585306      1.197532      0.131766
Ti       1.92460      9.76270      2.27411        -0.473988      0.432496     -0.156909
Ti       1.89555      9.81850     14.69091        -0.556949     -0.966586     -0.314068
Ti      13.55493      9.83964      2.22977         1.387584     -0.549600      0.482434
Ti      13.62130      9.60666     14.75809         0.182036      0.097715     -0.430749
Ti       2.04300      9.69156      6.27582        -0.825985      0.738972      1.435330
Ti      13.70537      9.71799      6.25616        -0.707783      0.259583     -0.188930
Ti       1.94343      9.78658     10.39981        -0.206901     -0.051407      1.039051
Ti      13.62894      9.76653     10.45520         0.717750     -0.150775     -0.396624
Ti       5.76196      1.96816      2.24213        -0.224953     -0.488010     -0.334094
Ti       5.83521      1.90665     14.70880        -0.566827     -0.597444      0.434262
Ti       5.76092     13.66844      2.31170         0.195602      0.233045     -0.174248
Ti       5.69970     13.59450     14.66332         0.919636      1.573980     -0.769586
Ti       5.87399      1.91787      6.27838        -0.109449     -0.075784     -0.384371
Ti       5.79168     13.64466      6.37352         0.585514     -0.435950     -0.324232
Ti       5.95858      2.03508     10.34957        -0.388090     -0.156903      1.632627
Ti       5.81257     13.65799     10.44557         0.062372     -0.222180      4.101939
Ti       5.66298      5.81571      2.09636         0.795209      0.456762     -0.047911
Ti       5.80009      5.73851     14.74523        -1.026299      0.378444      1.809691
Ti       5.88050      5.79455      6.28013        -0.519505      0.953661     -0.494783
Ti       5.75064      6.00436     10.49752         1.487704     -0.561533     -0.634681
Ti       5.79889      9.81656      2.19026         0.001566     -0.702048      0.454143
Ti       5.82052      9.79226     14.65606        -0.054942     -1.323562      0.056686
Ti       5.91939      9.69415      6.39699         0.631773     -0.141779      0.090802
Ti       5.81210      9.78730     10.60416         0.404543      0.357516      0.374948
Ti       9.63013      1.93251      2.21324         0.294401     -0.358570      0.176513
Ti       9.68226      1.84697     14.60554         0.339999     -0.278629     -0.990003
Ti       9.65958     13.73483      2.22092        -0.774435     -1.071130      1.047836
Ti       9.73782     13.54988     14.67183        -0.619061      0.692285     -0.655911
Ti       9.71326      1.91593      6.34293        -0.113792      0.055166     -0.035318
Ti       9.66571     13.76282      6.41777        -0.480464     -1.475760     -0.199293
Ti       9.69697      1.88590     10.49777         0.820136      0.153223     -0.216095
Ti       9.67500     13.61781     10.49541         0.062091     -0.520595      0.384595
Ti       9.66552      5.83046      2.06944        -0.331284      1.323659      0.522274
Ti       9.66389      5.83024     14.69426         1.648879      0.123288     -0.423992
Ti       9.71296      5.95497      6.37032         0.791341     -0.287006     -0.441878
Ti       9.69259      5.87427     10.45098        -0.687083      0.267520     -0.133668
Ti       9.74433      9.76921      2.06467        -0.745077     -0.187468      3.672549
Ti       9.69850      9.69983     14.57926         0.578565      0.261893      1.075381
Ti       9.72986      9.67226      6.35307        -0.586478      1.463830     -1.039894
Ti       9.90773      9.68148     10.48907        -2.190772      0.233932      0.638301
O       1.76094      1.95809      0.35717         0.418771      0.091944      0.944025
O       1.88302      1.93795     12.74620        -0.150487      0.111262     -1.392106
O       1.71948     13.93886      0.32614         0.213922     -0.381599      1.113050
O       2.01393     13.49452     12.85195        -0.281631      0.335200      0.253489
O      13.66277      2.14097      0.45809         0.002844     -0.351470     -0.940593
O      13.68330      1.76451     12.71378         0.394970      0.248273      1.337935
O      13.64691     13.78113      0.40987        -0.015869     -0.031541     -0.381599
O      13.47693     13.53973     12.87322         0.448896      0.175393      0.136499
O       1.95627      2.11711      4.60057         0.046003     -0.570974     -0.264344
O       1.96027     13.62159      4.69108        -0.013010     -0.203711     -0.703440
O      13.78524      1.76711      4.60913        -0.637226      0.165097      0.423202
O      13.63802     13.85784      4.59261        -0.656051     -0.482883     -0.196173
O       2.07204      1.83356      8.67841        -0.342607     -0.080864      0.256580
O       1.94068     13.56627      8.71764        -0.231571      0.245722     -0.859962
O      13.51590      1.91708      8.74032        -0.167990      0.161074     -2.116807
O      13.66422     13.55347      8.62800        -0.279170      0.074716     -0.008049
O       1.78315      5.97812      0.43541         0.396091     -0.718104     -0.065295
O       1.84726      5.86633     12.78240        -0.189715      0.548897      0.728913
O      13.60390      5.62897      0.51025         0.050564      0.175903     -0.200464
O      13.78869      5.90806     12.89479        -0.341940     -0.479902      0.089702
O       1.89633      5.66144      4.62626         0.390320      0.491843     -1.202319
O      13.47985      5.81751      4.54767         0.453248     -0.091644     -0.488556
O       2.18825      5.84839      8.65672        -0.458785     -0.128847     -0.669001
O      13.47553      5.88088      8.61927         0.348494     -0.206060      0.670808
O       1.88702      9.58989      0.49022         0.241655      0.242639     -0.253273
O       1.78128      9.76528     12.91028         0.544289     -0.101968     -0.136196
O      13.63135      9.63811      0.48416        -0.164454      0.351318     -0.516212
O      13.70867      9.85197     12.96101        -0.297947     -0.668960      0.504515
O       2.01548      9.88772      4.56378        -0.441788     -0.147802     -0.991914
O      13.57706      9.84515      4.47398         0.014521     -0.524794      0.325813
O       2.00694      9.87019      8.60394        -0.102719     -0.454587      0.051511
O      13.54954      9.82479      8.66278         0.340150     -0.445054      0.415685
O       5.77946      1.97557      0.39731        -0.097326     -0.339202      0.512218
O       6.03809      1.88351     12.97483        -0.668674      0.186564     -1.110584
O       5.62242     13.66610      0.55024         0.249230     -0.183254     -0.997681
O       5.70399     13.64147     12.84715        -0.205741     -0.242129      0.937289
O       5.74563      1.90062      4.47043         0.301721      0.409631      1.154263
O       5.64566     13.76384      4.56981         0.093582     -0.473225      0.629074
O       5.86683      1.90191      8.61319        -0.075450     -0.162170     -0.375518
O       5.94428     13.55443      8.77383         0.069152      0.375942     -3.081761
O       5.75596      5.83414      0.31436        -0.388927      0.232924     -0.885443
O       6.11331      5.73075     13.02972        -0.538493      0.435716     -1.144832
O       5.83332      5.81157      4.46537         0.228391      0.163207      0.611565
O       5.68938      6.07018      8.66096        -0.080977     -0.393863      1.113984
O       5.66660      9.95678      0.41312         0.092242     -0.466119     -0.175869
O       5.72771      9.76570     12.82789         0.268242      0.274982      1.576419
O       6.03309      9.76603      4.62893        -0.598329     -0.385596     -0.498921
O       5.83032      9.68054      8.77539        -0.282927     -0.070216     -0.243054
O       9.73018      1.99663      0.45234        -0.040966     -0.195083     -0.136784
O       9.79455      1.83045     12.75645        -0.408663     -0.129061      1.524077
O       9.58337     13.46137      0.50933         0.388981      0.269431     -1.174816
O       9.83786     13.61553     12.89790        -0.200642     -0.267172     -0.063326
O       9.59192      1.79535      4.55504         0.422623      0.367979     -0.209898
O       9.74432     13.76101      4.58839         0.235370      0.001160      0.460307
O       9.68856      2.04297      8.68300         0.405916     -0.197809      0.603475
O       9.56459     13.47618      8.70321        -0.090155      0.602906      0.372711
O       9.78059      5.96205      0.31923         0.014569     -0.700547      0.097872
O       9.63996      5.85571     12.90956        -0.215888     -0.251890     -0.150488
O       9.49321      5.88781      4.55726         0.326493      0.037501     -0.278299
O       9.74552      5.79517      8.64556         0.245561      0.380662      0.391459
O       9.70185      9.81168      0.37569        -0.087226      0.135861     -2.237894
O       9.71649      9.85489     12.85442         0.069941     -0.494349     -0.438915
O       9.60227      9.55529      4.51456         0.093156      0.255959      0.873476
O       9.83450      9.80586      8.68519        -0.225723     -0.507942      0.110741
O       3.84444      1.91276      2.46821        -0.362023     -0.110814     -0.047068
O       3.82115      1.90862     14.79794        -0.049996     -0.285925      0.614100
O       3.78336     13.68302      2.49588        -0.610536      0.486921      0.524548
O       3.73024     13.74687     15.04240         0.408715     -0.162830     -0.140938
O      15.57728      2.07400      2.62404         0.455209      0.230438     -0.581202
O      15.59315      2.24635     14.79381        -1.261810     -0.640354      0.341977
O      15.57156     13.70603      2.65817        -0.483829     -0.200524     -0.211970
O      15.50307     13.58733     14.88098         0.128437     -0.175157      0.114131
O       3.90465      2.10352      6.60194         0.823513     -0.794552      0.145881
O       3.91676     13.71056      6.78776        -0.026127     -0.443309      0.008121
O      15.57060      1.83778      6.70992         0.413267      0.026443      0.494448
O      15.49008     13.79038      6.63244         1.069790     -0.650176      0.328450
O       3.98141      1.93180     10.77029        -0.458272     -0.416732     -0.049950
O       3.89016     13.75077     10.71921         0.020805      0.360611     -0.125025
O      15.52634      1.92232     10.61401         0.817734      0.102465      0.266717
O       0.00052     13.45617     10.76630        -0.394847      0.373438      0.032518
O       3.79398      6.16513      2.43406        -0.343307     -0.585848      0.335671
O       3.84784      5.87213     14.76058         1.031629      0.208726      0.478786
O       0.00000      5.76023      2.70838        -0.630543     -0.109766     -0.670141
O      15.56048      5.80680     15.04822        -0.550237     -0.570888     -0.222469
O       3.91811      5.70948      6.46326         0.326120      0.303310      0.462476
O       0.00389      5.83257      6.72179        -0.283123     -0.005521     -0.132499
O       3.89652      5.85669     10.92237         0.107225      0.343655     -0.115822
O       0.04647      5.85416     10.67836        -1.060740     -0.267836     -0.405220
O       3.83066      9.88768      2.66388         0.365499     -0.991493     -0.401340
O       3.76236      9.52905     14.97607         1.195152      0.901904     -0.131818
O      15.49013      9.79981      2.68870         0.311959      0.370113     -0.279221
O      15.59128      9.70262     15.05952        -0.871786      0.012674      0.217241
O       3.89989      9.65711      6.66685         0.295734      0.688065     -0.258657
O       0.02171      9.74594      6.65041        -0.202428     -0.122346     -0.564450
O       3.85017      9.74814     10.83962        -0.002365     -0.382873     -0.136547
O      15.59893      9.85734     10.69160        -0.477684     -0.023092     -0.067602
O       7.69979      2.01840      2.56584         0.464282      0.256184     -0.381522
O       7.74218      1.85663     15.00624         1.109544      0.073541      0.274019
O       7.68074     13.54072      2.56600         0.832088      0.237030      0.092976
O       7.72301     13.62278     14.94067        -0.003746     -0.555356      0.112145
O       7.80730      1.99592      6.65977        -1.193523     -0.497651     -0.301575
O       7.73289     13.65584      6.52873         0.154786      0.199751      0.513159
O       7.88126      1.92853     10.76756        -1.685435      0.290280     -0.078783
O       7.74850     13.60160     10.94134         0.447934     -0.413626     -0.358147
O       7.59091      5.81700      2.24313         1.801533     -0.312401      0.657534
O       7.94193      5.62660     15.19120        -2.489763      0.146661     -0.232591
O       7.84053      5.96527      6.68644        -1.750625     -0.190197     -0.035095
O       7.74574      5.94745     10.66624        -0.627050     -0.296782      0.452756
O       7.67585     10.05772      2.38675         0.524680     -0.750685     -0.342175
O       7.75567      9.91137     14.95662        -0.619438     -0.212684     -0.391615
O       7.78827      9.52515      6.82705        -0.407444      0.799019     -0.333842
O       7.74916      9.77303     10.93301        -0.193287      0.014798     -0.326214
O      11.68547      2.01138      2.55574        -0.903897     -0.156803     -0.131776
O      11.72889      1.70652     14.88076        -0.276028      0.546863      0.546556
O      11.62425     13.72578      2.44964         0.351120      0.371208      0.017496
O      11.65036     13.62874     15.03334         0.829310      0.034157      0.622093
O      11.67930      1.87290      6.52174        -0.547544      0.418840      0.223424
O      11.59843     13.45595      6.77974         0.306473      1.300058     -0.656719
O      11.66022      1.89571     10.89406         0.346493      0.356948     -0.639189
O      11.64802     13.66831     10.69298        -0.143262      0.211942     -0.167498
O      11.60250      5.87197      2.49660        -0.634356     -0.112076     -0.095360
O      11.63804      5.86470     14.97322         0.612934     -0.157907     -0.185168
O      11.60957      6.00032      6.54355         0.291445     -0.703501      0.120245
O      11.66294      5.85263     10.95266         0.404698     -0.398242     -1.164160
O      11.62409      9.66168      2.46691         0.236336      0.072472     -0.208659
O      11.62504      9.65349     15.03027         0.755807      0.152697     -0.158379
O      11.71917      9.65720      6.52110        -0.257877      0.035474      0.155553
O      11.69768      9.58885     10.82405         1.257252     -0.005391      0.217525
O       2.15173      3.93917      2.44746        -0.917596      0.119440     -0.289481
O       1.93584      3.90884     14.84259         0.195046      0.507256      0.614269
O       1.82355      0.06615      2.52272         0.075976      0.024719      0.273597
O       1.62316      0.06483     14.66513         0.065894     -0.703438      0.618892
O      13.56605      3.91921      2.75184         0.124234     -0.323316     -0.420676
O      13.53081      3.82550     14.89489        -0.157717     -0.117966     -0.093718
O      13.66578      0.09990      2.44338        -0.359188     -0.357324      0.026014
O      13.70478      0.01301     14.86813         0.225537     -0.507224      0.420266
O       1.89963      3.85216      6.67743        -0.120751     -0.107400      0.683991
O       1.98226     15.52539      6.54214         0.211761      1.077215      0.707260
O      13.66164      3.85599      6.70722        -0.192615      0.026447     -0.288938
O      13.50650     15.58552      6.75739         0.081314     -0.217022      0.039846
O       1.92211      3.91980     10.77075         0.120030     -0.539395     -0.310249
O       1.79439     15.57246     10.66929         0.482993      0.166046      0.438097
O      13.66315      3.92097     10.81359        -0.313293     -0.279385     -0.436584
O      13.68422     15.54724     10.59019        -0.097052      0.079537      0.465107
O       1.74287      7.84894      2.55649         0.249063     -0.432144      0.593875
O       1.80011      7.71921     15.01718         0.278058      0.814758     -0.266264
O      13.73362      7.71054      2.56814        -0.590701      0.495149      0.000294
O      13.68141      7.69381     15.13779        -0.539806      0.686382     -0.622461
O       1.98528      7.74698      6.59648         0.284795      0.452591     -0.316719
O      13.62662      7.73853      6.50445         0.415313      1.006520      0.306906
O       1.91062      7.84096     10.64015         0.095086     -0.393404      0.453153
O      13.72770      7.71201     10.88023        -0.293580      0.535443     -0.543679
O       1.87588     11.74656      2.24161        -0.424245      0.171887      0.852389
O       1.86460     11.65440     15.05502         0.352502      0.574599     -0.083456
O      13.52215     11.79499      2.31399        -0.090606     -0.560022      0.486218
O      13.65168     11.64360     15.13270        -0.551868     -0.078897     -0.250407
O       1.89625     11.65989      6.67090         0.213710      0.284517      0.011686
O      13.66928     11.66193      6.46793         0.170797      0.023850      0.359979
O       2.10351     11.64413     10.74985        -0.203647      0.908956     -0.019849
O      13.49226     11.66730     10.82357         0.258487     -0.306073     -0.069829
O       5.56237      3.96182      2.30061         0.219578     -0.783983      0.604147
O       5.71343      3.78851     15.06949         0.553282      1.369310     -0.261682
O       5.80618      0.00914      2.53301        -0.088325      0.311617     -0.004340
O       5.81735     15.47815     15.06687        -0.324759      0.959274      0.080113
O       5.86603      3.94192      6.68982         0.406178     -0.446412     -0.327714
O       5.89380     15.60645      6.58998        -0.419909      0.389102      0.442884
O       5.77830      3.93909     10.64118         0.347346     -0.003901      0.346838
O       6.01547      0.04199     10.85493        -0.835323     -0.074954     -0.903510
O       5.86082      7.82130      2.46611        -0.294302      1.340375      0.082279
O       5.96276      7.87968     15.00830        -0.172569     -0.456574     -0.273664
O       5.71034      7.72844      6.62355         0.258351      0.013402     -0.161535
O       5.81657      7.87030     11.01830        -0.352812     -1.351897     -0.397950
O       5.65906     11.77124      2.70397         0.360527     -0.794827     -0.242956
O       5.61578     11.75961     15.01867         0.141770     -1.413152     -0.491042
O       5.94557     11.57617      6.59287        -0.642372      1.242130      0.502931
O       5.80901     11.68246     10.82854        -0.208083      0.686252     -0.145202
O       9.54876      3.94268      2.45654         0.661193     -0.319778      0.063985
O       9.79508      3.69799     14.84732         0.045494      0.809776      0.193971
O       9.49200     15.59185      2.37997         0.484723      0.837557     -0.008510
O       9.71159     15.48273     15.08515         0.025366      0.678124      0.071510
O       9.55241      3.88639      6.62467         1.587680      0.238566     -1.011098
O       9.64812      0.03496      6.83681         0.286044     -0.737206     -0.361171
O       9.59646      3.99135     10.93431         0.964408     -0.574834     -0.424118
O       9.62191     15.53014     10.79475         0.346369      0.340132     -0.644824
O       9.49210      7.81065      2.28360         0.162089      0.019572      0.436706
O       9.58899      7.80564     14.89073        -0.045970     -0.228910      0.311654
O       9.67302      7.87811      6.68248         0.566515     -1.953134      0.371598
O       9.63772      7.81057     10.80764         0.455175     -0.453320     -0.122921
O       9.76629     11.66166      2.63357         0.117355      0.439159     -0.408099
O       9.76285     11.65874     14.98740         0.152271     -0.000618      0.214188
O       9.65242     11.65082      6.68302        -0.210503     -0.277983     -0.521668
O       9.81788     11.58491     10.84568        -0.136541      1.097868     -0.054689
