  # total energy = -7877.56678443 
CRSYTAL
PRIMVEC
    15.6080000000000005    0.0000000000000000    0.0000000000000000
     0.0000000000000000   15.6080000000000005    0.0000000000000000
     0.0000000000000000    0.0000000000000000   16.6239999999999988
PRESSURE
-0.033811 -0.684601 -0.321861 -0.047183 -0.296525 0.057197
PRIMCOORD
320 1
Pb       4.01974      4.00208      4.15657        -0.375830     -0.791191     -0.128200
Pb       4.09307      4.10179      0.15481        -0.465204     -0.371426     -0.360217
Pb       3.86528      0.03520      4.01016         0.669462     -0.080061     -0.030750
Pb       3.76577     15.57355     16.61758        -0.035638      0.079682     -0.116067
Pb       0.09979      3.83426      4.17910        -0.152443      0.070834     -0.378768
Pb      15.46465      3.80596     16.61545         0.278937      0.712802      0.155764
Pb      15.54742     15.55413      4.00562         0.113063      0.230760     -0.019889
Pb      15.47081     15.56019     16.56253         1.059534     -0.050149      0.614462
Pb       3.63842      3.77222      8.35326         0.670498     -0.137750     -0.276303
Pb       3.89315      0.08401      8.30084        -0.427090     -0.383077      0.065874
Pb      15.54617      3.78014      8.28626         0.164899      0.029543     -0.334399
Pb       0.15191     15.58212      8.20453        -0.288722     -0.216546      0.130029
Pb       3.91518      3.94380     12.37868        -0.019152      0.110010     -0.028616
Pb       3.83617     15.39503     12.27913         0.209788      0.403422      0.264575
Pb      15.58796      3.76515     12.43074         0.216056      0.490409      0.345468
Pb      15.55450      0.32243     12.61199         0.189839     -0.418915     -0.507386
Pb       3.79968      7.86262      4.34130        -0.107284     -0.134286     -1.075181
Pb       3.80982      7.74137      0.00689         0.038060     -0.203517     -0.163590
Pb       0.25902      7.91483      4.25950        -0.519655     -0.551922     -0.559760
Pb       0.03829      7.73174      0.01929        -0.195299     -0.026778     -0.277141
Pb       4.08662      7.67333      8.09449        -1.143528     -0.139902      0.811618
Pb      15.39172      7.74671      8.59326         0.126129      0.178094     -0.686906
Pb       3.92430      7.90246     12.43588        -0.045253     -0.780395     -0.080653
Pb      15.59510      7.99183     12.61265        -0.147346     -0.740194      0.108108
Pb       3.82200     11.66950      4.07854         0.801377     -0.044300      0.104684
Pb       3.93039     11.60638     16.44436        -0.665453      0.265733      0.089758
Pb      15.59182     11.66463      4.05936        -0.506858     -0.074230      0.171451
Pb      15.53385     11.84781     16.55960         0.237246     -0.672062     -0.012112
Pb       3.83360     11.62177      8.04024         0.103173      0.880452      0.780917
Pb      15.57148     11.60758      8.33963         0.022519      0.421339     -0.537407
Pb       4.06567     11.68733     12.28090        -0.386046     -0.123733      0.523187
Pb       0.22550     11.51348     12.28854        -0.702506      0.638549      0.788869
Pb       7.86495      3.72367      4.20485         0.047574     -0.118584     -0.291545
Pb       7.85039      4.01123      0.13193         0.328927     -0.404923     -1.055599
Pb       7.77767     15.41471      3.98669        -0.139465      0.466315     -0.362207
Pb       7.91692      0.18664      0.12812        -0.061437     -0.185778     -0.470744
Pb       7.55682      3.98613      8.35620         0.292706     -0.162477     -0.385090
Pb       7.88139     15.50515      8.34925        -0.271103      0.191168     -0.046704
Pb       7.63601      3.77387     12.40525         0.683907     -0.081095      0.338991
Pb       7.63851     15.56463     12.57328         0.497156      0.035825     -0.309878
Pb       7.68516      7.86614      4.15808         0.383738     -0.022721      0.274756
Pb       7.84341      8.04527     16.59018        -0.233278     -1.080270     -0.267072
Pb       7.81754      7.76367      8.26381        -0.156398     -0.299792     -0.399145
Pb       7.84052      7.54672     12.33857         0.233725      0.379199      0.023841
Pb       8.02050     11.68701      4.35121        -0.934377      0.087660     -1.002429
Pb       7.63536     11.67943      0.02637         0.598258      0.265763     -0.103999
Pb       7.59592     11.74275      8.07502         0.053405      0.059070      0.457044
Pb       7.66329     11.45580     12.40169         0.453770      0.689586     -0.026058
Pb      11.79158      3.93350      4.39499         0.157852     -0.299811     -0.911326
Pb      11.84364      4.09829      0.13827        -0.790762     -0.203669     -0.171436
Pb      11.49863     15.46494      4.18206         0.042178      0.706069     -0.614845
Pb      11.55299     15.50938      0.11227        -0.247246      0.210688     -0.758445
Pb      11.77614      4.12041      8.41763        -0.134265     -0.235453     -0.705886
Pb      11.61993      0.13439      8.24808         0.500931     -0.082400      0.198971
Pb      11.86453      3.81501     12.64150        -0.587392     -0.081760      0.070287
Pb      11.90551     15.52501     12.41710        -1.049309      0.422291      0.155723
Pb      11.72886      7.42152      4.00967         0.260085      1.441724      0.730320
Pb      11.35851      7.77575      0.03071         0.961564      0.049068     -0.319552
Pb      11.51272      7.97433      8.22655         0.774127     -0.783074     -0.158940
Pb      11.50037      7.89241     12.69675         0.076034      0.149618     -0.494973
Pb      11.60519     11.25566      4.29349         0.552115      0.941287     -0.821393
Pb      11.82008     11.80872     16.50240        -0.515684     -0.728445      0.451704
Pb      12.07893     11.98856      8.43763        -0.556405     -0.729458     -0.189861
Pb      11.61641     11.90137     12.40621         0.003817     -0.408813      0.110858
Ti       1.87815      1.82418      2.15626         0.264926      1.034343      0.800839
Ti       1.99925      1.99838     14.71598         0.331888     -0.519458     -0.315655
Ti       1.91723     13.53070      2.18887         0.066593      0.681896     -0.915236
Ti       1.94431     13.68731     14.42596         0.238663     -0.668882      2.130754
Ti      13.56406      1.91699      2.20851        -0.626107      0.756579      0.928124
Ti      13.62420      1.93181     14.85842        -1.802818      0.571309     -0.516959
Ti      13.54715     13.61643      2.31419        -0.110007     -0.693719     -0.284983
Ti      13.70038     13.66359     14.60717        -0.599133     -0.757810      0.673837
Ti       1.91605      1.92220      6.34671         0.748039      0.074818     -0.162176
Ti       1.93243     13.63381      6.13525        -0.007485      0.402307      1.676923
Ti      13.65188      1.88244      6.28386        -0.005648     -0.072227     -0.429039
Ti      13.73054     13.64223      6.18072         0.096377      0.346019      1.189539
Ti       1.94235      1.91807     10.59530        -0.284912     -0.264061     -1.511102
Ti       1.92393     13.56666     10.40826         0.841287      1.023967     -0.905755
Ti      13.58869      1.96700     10.47019         0.113276     -0.557558     -0.009586
Ti      13.79073     13.71223     10.48662        -0.381603     -0.333508      0.032275
Ti       2.02525      5.73501      2.25974        -0.171487      0.953370     -0.558283
Ti       1.87985      5.73778     14.69143        -0.005615      0.835616      0.726873
Ti      13.83445      5.85564      2.14761        -1.441551     -0.263893     -0.175881
Ti      13.55332      5.93617     14.66938         0.435045     -0.161610      0.825613
Ti       1.83069      5.85799      6.36976         0.017707     -0.170304     -0.703982
Ti      13.64113      5.92085      6.30063        -0.001202     -1.284663      0.587825
Ti       1.89801      5.84055     10.48937         1.960751     -0.354717      0.016901
Ti      13.76171      5.83247     10.57432        -1.227062      0.287472      0.385445
Ti       1.91891      9.76445      2.17879         0.357126     -1.783098      0.363312
Ti       1.97284      9.68521     14.62612        -0.610684      0.427771     -0.242228
Ti      13.67607      9.70083      2.27046        -0.606267     -0.157491     -1.367697
Ti      13.64172      9.72584     14.64826        -0.202169     -0.070615      0.486816
Ti       1.79318      9.72069      6.46316         0.822528     -0.492256     -0.187018
Ti      13.63603      9.66898      6.23741        -0.423470      0.365478      0.076215
Ti       1.99820      9.67083     10.39777         0.390326     -0.196462     -0.577118
Ti      13.49132      9.69160     10.69637         0.135099      0.322958     -0.690023
Ti       5.82275      2.00322      2.13154         0.190095     -1.348082      0.512671
Ti       5.83193      1.98089     14.66987         1.117065      0.119525     -0.479890
Ti       5.83620     13.51401      2.15418         0.588622      0.951184      1.905054
Ti       5.90128     13.73501     14.83890         0.429043     -0.073704     -1.858949
Ti       5.89622      1.85478      6.35643        -1.848957      0.616781     -0.223582
Ti       5.70094     13.70481      6.29434         0.282341     -0.279771     -0.694293
Ti       5.80923      1.89307     10.51755         0.425241     -0.135765      0.821256
Ti       5.87866     13.57590     10.52232        -0.413779      0.352822     -1.350643
Ti       5.99279      5.86738      2.24786        -1.523566      0.469598      0.911214
Ti       5.83763      5.77548     14.64979         0.661388      0.332161     -0.043566
Ti       5.75505      5.77287      6.20840         0.183052     -0.689723      1.101766
Ti       5.88689      5.85165     10.51720        -1.389169     -0.483468     -0.422962
Ti       5.81212      9.72191      2.28364        -0.465856      0.330404      0.775829
Ti       5.87021      9.62259     14.63515        -0.748582      0.219987     -0.177085
Ti       5.77165      9.65315      6.26432         0.911075      1.410694     -0.949125
Ti       5.89226      9.61299     10.33953        -0.456712      0.392519      1.804304
Ti       9.75506      2.04086      2.16776         0.098261     -1.223811      0.435902
Ti       9.73493      2.00781     14.63800        -0.329012     -0.111132      0.278823
Ti       9.82065     13.52214      2.17800        -1.942451      0.170623     -0.181210
Ti       9.68239     13.62341     14.64285        -0.234071      1.138645      0.215554
Ti       9.74831      1.94704      6.31970        -0.270043      0.018738     -0.157227
Ti       9.82534     13.60554      6.42180         0.214426      0.262562      0.356276
Ti       9.71425      1.93396     10.54550        -0.204695     -0.476826      1.312891
Ti       9.72887     13.65984     10.40040        -0.434176      0.525109      1.463944
Ti       9.74684      5.83742      2.30589         0.358875     -0.831242     -1.010300
Ti       9.64637      5.82217     14.57174        -0.057162     -0.813550      0.116906
Ti       9.65886      5.79559      6.37115         0.829059     -0.224215     -0.454467
Ti       9.92040      5.66164     10.47096        -1.173622      0.680657      1.381740
Ti       9.67366      9.64991      2.21889         0.986306      1.028180     -0.402981
Ti       9.75240      9.89574     14.63926         0.306572     -0.905395     -0.527059
Ti       9.75929      9.79238      6.33236        -0.800598     -0.946139      0.917723
Ti       9.74746      9.74987     10.30123        -0.123479      0.025097      1.955357
O       1.84989      1.70133      0.42467         0.329540      0.436528     -1.341764
O       1.79540      1.94221     12.85318         0.168638     -0.028463      0.836214
O       1.85935     13.57497      0.38450         0.190564      0.060662      0.863600
O       2.01378     13.54492     12.69599        -0.348618      0.531962     -0.240989
O      13.55022      2.06322      0.44120         0.144755     -0.555910     -1.420727
O      13.63153      1.95317     13.00835         0.577018     -0.421766     -0.043778
O      13.40954     13.45156      0.53584         0.587053      0.459889     -1.259743
O      13.61643     13.69816     12.88234         0.339324      0.396526     -0.756613
O       1.84505      2.07353      4.56666         0.017973     -0.462641     -0.329010
O       1.98987     13.68431      4.37323        -0.263181     -0.278329     -0.243776
O      13.62364      1.80768      4.47051         0.264701      0.350517      0.874187
O      13.62859     13.61166      4.41409         0.051094      0.225851      0.504460
O       1.87716      2.06286      8.64371         0.003550     -0.304046      1.404224
O       1.94602     13.74116      8.60758        -0.245081     -0.837665      0.809834
O      13.58472      1.91913      8.70550        -0.050340      0.318272     -0.395026
O      13.76288     13.65748      8.65307        -0.182300     -0.444841      0.729765
O       2.01953      5.99669      0.45595        -0.229837     -0.360090     -0.051091
O       2.01141      5.79061     12.95447        -0.189012     -0.124170     -0.744654
O      13.65212      5.90426      0.30802        -0.190527     -0.243360      0.592420
O      13.55900      5.69039     12.92890         0.040798      0.136695     -1.413297
O       1.75293      5.82245      4.50178         0.138444     -0.239348      0.316883
O      13.57126      5.75006      4.54141         0.098521      0.136855     -0.934674
O       2.06941      5.59808      8.72535        -0.773759      0.820367     -0.072653
O      13.68766      5.94782      8.77005        -0.146298     -0.469696      0.081631
O       1.85611      9.69703      0.43233         0.167876     -0.027705     -1.378865
O       1.84303      9.49919     12.79405         0.405890      0.434591      0.251013
O      13.60835      9.62096      0.43464         0.201401      0.371886      0.618874
O      13.52153      9.69741     12.84161         0.480325      0.031994     -0.417441
O       1.83600      9.70537      4.65150         0.143508      0.084843     -0.145202
O      13.70420      9.86589      4.46057        -0.041415     -0.581198      1.311224
O       1.97783      9.81188      8.54645        -0.325001     -0.133102      1.445767
O      13.57927      9.72904      8.84659        -0.119700     -0.121813      0.306213
O       5.85836      2.07574      0.36413        -0.089865     -0.163203     -0.020798
O       5.90704      1.97587     12.82516        -0.587256     -0.192000      0.791313
O       5.96313     13.57603      0.39671        -0.589132     -0.315962     -1.470910
O       5.90552     13.57448     12.93011        -0.434798     -0.001267      0.727077
O       5.73002      1.90900      4.58778         0.212754      0.113960     -0.353101
O       5.71689     13.67874      4.47936         0.294914      0.165815      0.946887
O       5.69166      1.92068      8.76916         0.587118     -0.156809     -1.053575
O       5.74459     13.55009      8.73192         0.157468      0.206960      0.212467
O       5.98765      5.74304      0.47088        -0.433696      0.389277     -0.070465
O       5.92626      5.79970     12.86214        -0.423441      0.156458     -0.202498
O       5.72067      5.81027      4.45460         0.258962     -0.421998      0.291879
O       5.89441      6.04921      8.69108        -0.026012     -0.716637      0.064928
O       5.89048      9.66050      0.52056        -0.246064      0.068782     -1.137667
O       5.96488      9.72506     12.84069        -0.444318     -0.333192      0.147484
O       5.71360      9.85303      4.45128         0.326181     -0.759347      1.511881
O       5.86138      9.58196      8.61120        -0.284003     -0.025962     -1.199014
O       9.57457      2.08393      0.38239         0.612155     -0.467268     -0.279447
O       9.67437      2.02479     12.85818         0.208632     -0.401979      0.360418
O       9.68235     13.66807      0.42622         0.513723     -0.298943     -0.621579
O       9.60733     13.65917     12.87878         0.287033     -0.321000     -0.592416
O       9.70349      1.77875      4.52446         0.013700      0.469678      1.017001
O       9.72321     13.64039      4.64166        -0.206036      0.233668     -0.073916
O       9.87944      1.88292      8.80749        -0.179893      0.174924     -1.403426
O       9.78453     13.70513      8.63928        -0.159128     -0.220884     -0.725995
O       9.75444      5.83146      0.47920        -0.615011      0.026434      0.564054
O       9.63890      5.68098     12.76399         0.301184      0.845857      0.087661
O       9.83303      5.69656      4.57444        -0.197125      0.278785     -0.121089
O       9.76452      5.66104      8.68750        -0.083257      0.215319     -0.424754
O       9.72344      9.60929      0.37768        -0.302995     -0.061898      0.375898
O       9.78193      9.89218     12.79865        -0.524071     -0.426154      1.159466
O       9.63917      9.73054      4.58402         0.089933      0.237115     -1.465532
O       9.88604      9.75549      8.55333        -0.256654     -0.079750     -0.127301
O       3.88830      1.87113      2.46374        -0.188850      0.405800     -0.182343
O       3.92212      2.00086     14.95435        -1.223351     -0.428489      0.124137
O       3.91333     13.54579      2.41108        -1.076040      0.096127     -0.271848
O       3.78983     13.80939     14.99122         0.696540     -0.392398     -0.113288
O      15.53483      1.80307      2.42131         0.061733      0.130619      0.244304
O      15.50988      1.91777     15.09796         0.616057      0.042657     -0.262602
O      15.53100     13.63163      2.42826         0.391428      0.127872      0.179016
O       0.03957     13.55630     14.95566        -0.766988      0.507078     -0.313387
O       3.80749      1.92992      6.71427        -0.382585      0.112975     -0.164227
O       3.82507     13.61249      6.60005        -0.390798     -0.188807     -0.176547
O      15.60722      1.87416      6.74426        -0.913655      0.502124     -0.506149
O       0.01097     13.62385      6.52363        -0.656937      0.051946     -0.230345
O       3.81822      1.91644     10.73521         0.144813      0.014801      0.554148
O       3.88592     13.51706     10.75569         0.037229      0.202063      0.446988
O      15.57221      1.88509     10.82564         0.243239     -0.289458      0.344006
O       0.06253     13.42449     10.66617        -0.896102      0.115894      0.331582
O       3.89887      5.84961      2.43447         0.391714     -0.710312      0.283668
O       3.93236      5.69941     15.05243        -0.760604      0.426666      0.030211
O      15.60278      5.66104      2.29354         0.445315      0.549273      0.466573
O      15.50468      5.91359     14.94247         0.510842     -0.660847      0.166315
O       3.79381      5.94162      6.40490         1.156294     -0.310768      0.459760
O      15.53041      6.01406      6.68357         0.232810     -0.066677      0.244919
O       3.89809      5.74374     10.84555        -0.403288      0.069401      0.124484
O       0.04690      5.83020     10.74114        -0.635654      0.037322      0.347548
O       3.85447      9.81968      2.51853        -0.395872     -0.130176     -0.156834
O       3.87781      9.65521     14.91012        -0.755080     -0.243020      0.209994
O      15.59340      9.74731      2.62613         0.200706     -0.561213     -0.423832
O      15.56636      9.73392     14.84062         0.066705     -0.078165      0.143530
O       3.89986      9.74344      6.60706        -0.232097     -0.500033     -0.222579
O      15.55315      9.55870      6.76802        -0.764204      0.284847     -0.269559
O       3.86953      9.64443     10.79557         0.164850      0.120295     -0.227465
O      15.55021      9.66504     10.82111         0.443840      0.170862     -0.255789
O       7.83074      1.96971      2.50813        -1.370867     -0.248118      0.226279
O       7.76224      1.99190     14.95820         0.564352      0.189439      0.102134
O       7.82195     13.53853      2.56694        -0.403702      0.018958      0.085429
O       7.76189     13.58226     14.98310        -0.745810     -0.589716      0.285234
O       7.70550      1.94244      6.55976         0.876706     -0.288185      0.611370
O       7.59629     13.73030      6.76583         1.386595     -0.196524     -0.501834
O       7.72626      1.79905     10.85147        -0.063882      0.276545     -0.530276
O       7.71579     13.60492     10.70711         1.134777     -0.073757     -0.084737
O       7.75822      5.89566      2.75405         0.652008     -0.275676     -0.630948
O       7.76948      5.81419     14.99135         0.130812      0.115822     -0.015733
O       7.76300      5.83328      6.60540        -0.423760     -0.304633      0.099452
O       7.69529      5.79714     10.78466         1.117837      0.162800     -0.340113
O       7.80763      9.69286      2.51830        -0.651884     -0.412885      0.199931
O       7.69506      9.81100     14.92848         0.938540     -0.238793      0.360153
O       7.74470      9.83374      6.46287        -0.309710     -0.515960      0.697619
O       7.76820      9.55577     10.51975         0.966761      0.485763      0.466883
O      11.58540      2.02629      2.50909         1.133643     -0.599749     -0.027537
O      11.69391      1.77626     14.94674        -0.259779      0.150696      0.230545
O      11.58548     13.44938      2.59721         1.465549      0.522325      0.137407
O      11.57736     13.55198     14.84680         1.271060      0.411699      0.411857
O      11.71251      1.82664      6.52260        -0.059630      0.669417      0.161883
O      11.73633     13.68509      6.62193        -0.238918     -0.435058     -0.050280
O      11.69448      2.07060     10.93853         0.367616     -0.673292     -0.356528
O      11.79910     13.68933     10.80969        -1.201285      0.362642     -0.363882
O      11.68170      5.83305      2.38184        -0.120777     -0.320933      0.317519
O      11.52935      5.99967     14.96231         1.054557     -0.199709     -0.071269
O      11.63689      5.76345      6.64787         0.198162     -0.191631      0.367871
O      11.75511      5.56405     10.72030        -0.116035     -0.208843     -0.071991
O      11.63531      9.57586      2.70713         0.290644      0.262953     -0.615175
O      11.67755      9.69924     14.91216        -0.882857      0.158589     -0.054439
O      11.64574      9.85118      6.43825         0.989887     -0.464399      0.398745
O      11.61837      9.57307     10.92168        -0.158343      0.514364     -0.784369
O       1.85311      3.84972      2.43554         0.468221     -0.342842     -0.001862
O       1.86007      3.86094     15.14477        -0.148839     -0.311105     -0.286562
O       1.92471     15.57296      2.50701         0.109220     -0.776177      0.038574
O       1.81281      0.06612     14.87494         0.156021     -0.736511     -0.031084
O      13.54915      3.83284      2.44686         0.366440      0.642260      0.275621
O      13.50806      3.91687     15.01957         0.155608     -0.537151      0.119119
O      13.44365     15.56008      2.34048         0.148325     -0.377324      0.455541
O      13.65123     15.50436     15.11642        -0.180051      0.209357     -0.369043
O       1.86662      3.96150      6.64206        -0.264364     -0.610336     -0.103715
O       1.86912     15.57018      6.54477         0.218419      0.190189     -0.156339
O      13.74596      3.97404      6.50171        -0.352108     -1.702636      0.655655
O      13.66198     15.56077      6.61259         0.254990     -0.130408     -0.438581
O       1.88839      3.79147     10.91944         0.057571      0.900101     -0.235640
O       1.92896     15.52691     10.68257         0.011280      0.149385      0.598616
O      13.87590      3.77052     10.83372        -0.745174      1.595790     -0.211592
O      13.69946      0.00989     10.81750         0.031400     -0.358577      0.278191
O       2.03416      7.79381      2.61421        -0.755134      0.166789      0.099721
O       1.77666      7.70529     14.93430         0.995159      0.862381      0.280671
O      13.71090      7.72315      2.57708         0.108957     -0.144700     -0.093145
O      13.55570      7.81649     14.78039         0.327368      0.105200      0.194013
O       1.95639      7.74775      6.58065        -0.067596      0.956629      0.307399
O      13.41839      7.74886      6.47910         0.257154      1.991519      0.550824
O       1.96582      7.75228     10.58176        -0.235251      0.101465      0.269697
O      13.57650      7.69740     10.87001         0.359826      0.270598      0.123896
O       1.80292     11.59178      2.52479         0.482523      1.815348     -0.126063
O       1.97050     11.64965     14.68273         0.136739     -0.120720      0.611976
O      13.69861     11.62048      2.50690        -0.307837      0.052645      0.028113
O      13.59437     11.71828     14.92259         0.286639     -0.038823      0.236973
O       1.86260     11.74353      6.53655        -0.005693     -0.987840      0.268911
O      13.71395     11.59182      6.66385        -0.031073      0.841582      0.061958
O       2.04162     11.60228     10.79275        -0.487895     -0.557023     -0.332733
O      13.46226     11.77713     10.90778         0.771219     -1.062618     -0.775375
O       5.87710      3.89175      2.45913        -0.223705      0.377015      0.463405
O       5.92734      3.90451     14.92436        -0.513282     -0.267752      0.359585
O       5.86413     15.56145      2.35026        -0.056219      0.188183      0.423157
O       6.05438      0.04721     14.96643        -1.135456     -1.037727      0.147007
O       5.66165      3.88415      6.64787         0.705238      0.445471     -0.086479
O       5.58539     15.59128      6.71861         0.948947      0.046830     -0.404296
O       5.86445      3.85154     10.77080        -0.288524      0.078515     -0.237046
O       5.72229     15.54479     10.90982         0.193902     -0.283842     -0.457820
O       5.71799      7.80905      2.79357         0.600833     -0.262302     -1.131035
O       5.70106      7.70825     15.02567         0.652399      0.864421     -0.231373
O       5.89887      7.69322      6.57327        -0.233879      1.154968     -0.451726
O       5.74205      7.73009     10.90307         0.381081      0.710940     -0.376655
O       5.80261     11.65104      2.58330         0.292793      0.165723     -0.639653
O       5.67772     11.58799     14.99602         0.550304      0.670154      0.109843
O       5.78393     11.66696      6.58682        -0.078760      0.056526      0.117731
O       5.85856     11.55480     10.75954         0.086712     -0.036897     -0.078865
O       9.69377      3.84751      2.56349        -0.421482      1.669583      0.242283
O       9.84691      3.92830     14.93264        -0.220819     -0.229786      0.136492
O       9.75360     15.56876      2.36839         0.146315     -0.361612      0.574142
O       9.59562     15.56567     15.03794         0.450904      0.191789      0.013730
O       9.62013      3.83972      6.60622         0.343824     -0.444135      0.047934
O       9.76291      0.02976      6.78121        -0.489917     -0.625632     -0.390176
O       9.53986      3.78858     10.76552         0.279338      1.160393     -0.305558
O       9.60366     15.55204     10.72732         0.734438     -0.447116      0.139010
O       9.70771      7.72007      2.53092        -0.287088      0.178112      0.164191
O       9.56035      7.80517     14.89755         0.405453      0.590995     -0.122264
O       9.69858      7.78202      6.63627         0.093202      0.028370      0.278485
O       9.74423      7.68175     10.69480         0.152544      0.150722     -0.042994
O       9.68876     11.57770      2.38104         0.049627     -0.214164      0.724335
O       9.67231     11.67965     15.07822        -0.151868     -0.129793     -0.309217
O       9.66212     11.69091      6.54311        -0.179861      1.143765      0.210885
O       9.81109     11.71636     10.66457        -0.184222     -0.825635     -0.100238
