  # total energy = -7882.63265477 
CRSYTAL
PRIMVEC
    15.6080000000000005    0.0000000000000000    0.0000000000000000
     0.0000000000000000   15.6080000000000005    0.0000000000000000
     0.0000000000000000    0.0000000000000000   16.6239999999999988
PRESSURE
-0.127894 -0.221318 0.649337 -0.173042 0.333826 -0.055232
PRIMCOORD
320 1
Pb       3.92700      3.80150      4.10171         0.358934      0.459051      0.201354
Pb       4.00421      3.95745      0.03880        -0.105787     -0.481008     -0.387883
Pb       3.90916     15.57499      4.00254         0.036070      0.047009      0.094627
Pb       3.88186     15.57094     16.54961        -0.116402      0.048880     -0.090010
Pb       0.03272      3.88183      4.08371         0.087337     -0.152769      1.136325
Pb      15.59646      3.80013     16.60451         0.060594      0.323152     -0.046682
Pb      15.58335     15.48869      4.02497        -0.184275      0.074656      0.544946
Pb      15.58341     15.59129     16.56060         0.027418     -0.367379     -0.030424
Pb       3.80911      3.78784      8.23459         0.349616      0.215330      0.273138
Pb       3.84728     15.55818      8.14418        -0.130380     -0.589133      0.518318
Pb      15.48264      3.84254      8.26510         0.250862      0.380981      0.310870
Pb      15.52784     15.54792      8.21570         0.564415     -0.362880      0.906923
Pb       3.77210      3.84628     12.47136         0.409504      0.229943      0.361039
Pb       3.87656     15.57469     12.54115         0.300866     -0.244891     -0.281074
Pb       0.06507      4.03799     12.54996        -0.052246     -0.614866     -0.337390
Pb       0.07356      0.10869     12.62742        -0.293634     -0.139063     -0.249099
Pb       3.86703      7.85981      4.01995         0.016384     -0.349316      0.648901
Pb       3.90336      7.77348     16.51891        -0.448830      0.069505      0.282302
Pb      15.52254      7.84198      4.12806         0.493818     -0.304281      0.249915
Pb      15.57346      7.74711     16.51230         0.469812     -0.125753      0.745461
Pb       3.78828      7.73737      8.30364         0.203720      0.145678      0.043944
Pb      15.35088      7.70545      8.53010         0.525945      0.002975     -0.627190
Pb       3.93912      7.75304     12.36481        -0.350020      0.644786     -0.150380
Pb      15.50905      7.81198     12.48073         0.224800      0.736897      0.277291
Pb       3.84192     11.72241      4.01626         0.189915     -0.350438      0.690008
Pb       3.81751     11.74255     16.61032         0.284599      0.032195     -0.344468
Pb      15.52032     11.63082      4.01611         0.459535      0.336861      0.554109
Pb      15.55600     11.70576     16.54174         0.117739     -0.033575      0.083773
Pb       3.85329     11.78745      8.30399        -0.261578     -0.594065     -0.341189
Pb       0.03078     11.68541      8.23742         0.078119     -0.259779      0.280011
Pb       3.87582     11.63301     12.36345        -0.108797     -0.291152     -0.070573
Pb       0.07823     11.72928     12.46790        -0.550845     -0.379838     -0.037585
Pb       7.77476      3.74086      4.14290         0.177111      0.625802     -0.270095
Pb       7.80252      3.97531     16.54582        -0.021359     -0.282043      1.015364
Pb       7.73985     15.55912      4.14125         0.296612     -0.146655     -0.361365
Pb       7.79170      0.12442     16.59640         0.183496     -0.732182      0.339541
Pb       7.76466      3.81898      8.36715        -0.279442      0.208162     -0.570104
Pb       7.83293      0.03063      8.18535        -0.029991     -0.144449      0.275430
Pb       7.83483      3.73290     12.40017        -0.468857      0.580003      0.812368
Pb       7.70725     15.55697     12.39037         0.146004      0.018418      0.246744
Pb       7.84789      7.82972      4.17550         0.369510     -0.490011     -0.176706
Pb       7.61129      7.71975     16.59198         0.807558      0.323891      0.218499
Pb       7.80499      7.71857      8.19094         0.224857      0.022573      0.122382
Pb       7.70079      7.77994     12.41059        -0.055224     -0.225811      0.519280
Pb       7.83404     11.72285      4.15552         0.145818     -0.275335      0.199372
Pb       7.69956     11.81400     16.54428        -0.290421     -0.422444      0.371024
Pb       7.85349     11.74622      8.29991         0.055053     -0.368787     -0.595264
Pb       7.77171     11.69477     12.39054         0.004473     -0.256256      0.379680
Pb      11.83177      3.77842      4.22509        -0.401256      0.369734      0.179645
Pb      11.69567      4.00245      0.16258         0.156444     -0.220334     -0.317989
Pb      11.61800     15.45377      4.08664         0.528266      0.073704      0.340288
Pb      11.62363     15.56625     16.53373         0.593681     -0.099629      0.310537
Pb      11.72568      4.03887      8.42278         0.165271     -0.028258     -0.371020
Pb      11.73742      0.14264      8.34349        -0.034612     -0.634360      0.014505
Pb      11.75021      3.85408     12.43777        -0.096987      0.221133      0.340579
Pb      11.51946      0.07918     12.39737         0.627759     -0.426275      0.741305
Pb      11.76896      7.88708      4.23708        -0.657588     -0.329419     -0.192682
Pb      11.65156      7.80751     16.59946         0.190038     -0.190680      0.179110
Pb      11.69788      7.74751      8.36714        -0.384420      0.213959     -0.026661
Pb      11.54995      7.99549     12.52587         0.423488     -0.640050      0.136206
Pb      11.88689     11.48672      4.15589        -1.009980      0.580285      0.352855
Pb      11.56782     11.64974     16.52891         0.850566     -0.035019      0.332009
Pb      11.77066     11.87041      8.51376         0.211462     -0.254562     -0.661522
Pb      11.59830     11.74665     12.43645         0.586690     -0.053665     -0.140637
Ti       1.98213      2.03714      2.22313        -0.195422     -1.496862      0.096903
Ti       2.00091      2.02921     14.67095         0.831245     -0.562699      0.006731
Ti       1.92507     13.67385      2.18735        -0.357525     -0.402119     -0.973342
Ti       1.90686     13.64832     14.58323        -0.065494      0.304757      1.566050
Ti      13.67140      1.92011      2.32219         0.648020     -1.005701     -0.045790
Ti      13.76793      1.95375     14.63048        -1.598668     -1.046115     -0.834549
Ti      13.62891     13.54282      2.12739         0.057877      1.458986      0.610285
Ti      13.61142     13.58554     14.67379         0.254472      0.533489      0.078509
Ti       1.89802      1.78782      6.37928         0.040082      0.364375     -1.064773
Ti       1.88313     13.53232      6.22368         0.172173     -0.084748      0.813501
Ti      13.64110      1.87996      6.42271        -0.031952      0.449207     -0.124540
Ti      13.63510     13.58563      6.41017        -0.157293     -0.070590     -0.040725
Ti       2.01819      1.83679     10.62677        -1.272295      1.129951     -1.801328
Ti       1.90637     13.64352     10.52596         0.552113      0.009260     -0.402909
Ti      13.73769      2.00708     10.57432        -0.458775     -0.052219      1.068606
Ti      13.64731     13.80385     10.64127        -0.018152     -1.586984      0.041522
Ti       1.88917      5.87744      2.22736         0.461661      0.512224     -0.375783
Ti       1.99927      5.92517     14.53147        -0.554772     -0.835350      0.724894
Ti      13.59855      5.83903      2.30473         0.258831     -0.032635     -0.218186
Ti      13.67135      5.73173     14.69365        -0.276594      1.101645     -0.547475
Ti       1.92000      5.69288      6.36052        -0.497017      1.224652     -0.218974
Ti      13.60619      5.89154      6.34912         0.518985     -0.642441      0.713558
Ti       1.84531      5.83463     10.58896         0.540602     -0.011554      0.283066
Ti      13.58266      5.92368     10.68882        -0.066549     -0.145119     -0.780409
Ti       1.98031      9.73084      2.22295        -0.825037      0.430589     -0.269673
Ti       1.96025      9.78498     14.73498        -0.600895     -0.498526     -1.084256
Ti      13.66312      9.68835      2.20789        -0.457277     -0.335589     -1.473697
Ti      13.65533      9.63018     14.80074         0.164126      0.856934     -1.235402
Ti       2.00258      9.61006      6.38797        -0.248811      0.161567      1.303362
Ti      13.71821      9.71883      6.47144        -0.126668      0.639666      0.967204
Ti       1.89945      9.74915     10.47118         0.499772      0.277462     -0.191498
Ti      13.71357      9.85297     10.59914        -0.745725     -0.172912      0.001182
Ti       5.91542      1.95228      2.14721         0.155085     -0.154935      0.001422
Ti       5.92821      1.81511     14.64344        -1.307920      0.609908      0.625160
Ti       5.92445     13.54549      2.30442         0.120994      0.510733     -1.002536
Ti       5.83195     13.56394     14.62632        -0.417569      0.367835     -0.126045
Ti       5.83243      1.77936      6.26472         0.423180      1.268812      0.040274
Ti       5.90485     13.48818      6.36838        -0.489426     -0.304453     -1.619259
Ti       5.77209      1.96790     10.51922         0.584626     -0.607932     -0.157852
Ti       5.83360     13.60043     10.51736        -0.417242      0.606103      0.222172
Ti       5.80110      5.89929      2.17959         0.678946     -1.266755      0.879735
Ti       5.84676      5.76532     14.76548         0.088264     -0.216153     -1.671487
Ti       5.77304      5.79820      6.27352         0.310446     -0.802579      0.099142
Ti       5.72359      5.77098     10.60544         0.472553      0.308156     -1.897369
Ti       6.02096      9.71428      2.25052        -0.494494      0.222766      0.436085
Ti       5.84087      9.67475     14.61153        -0.326872      0.952224      0.107522
Ti       5.88617      9.59645      6.30150        -0.057564      1.160079      0.459116
Ti       5.89264      9.74469     10.45359        -1.184697     -0.710207      0.909634
Ti       9.89327      1.92772      2.24118        -1.452185     -0.770860     -0.248992
Ti       9.84604      1.92933     14.78392         0.397979     -0.498070     -0.777125
Ti       9.82965     13.54260      2.17955        -0.518528      0.362620      1.029524
Ti       9.70105     13.57346     14.65300         0.427632      0.973441     -0.134549
Ti       9.81328      1.96968      6.42238        -0.457671     -0.104195      1.571238
Ti       9.79216     13.63364      6.34475         0.361525      0.025877      2.294553
Ti       9.75033      1.95335     10.54295         0.132144     -0.042171     -0.324719
Ti       9.68216     13.66583     10.46862         0.660636     -0.068672      0.352715
Ti       9.78011      5.79497      2.26607        -1.037189      0.357267     -0.154448
Ti       9.79530      5.81800     14.82806        -0.116087      0.433959     -1.129119
Ti       9.70860      5.78855      6.35084         0.561184      0.709871     -0.697730
Ti       9.63836      5.81523     10.73973         0.408819      0.794909     -0.400290
Ti       9.83163      9.67145      2.06870        -0.341493      0.171523      1.754851
Ti       9.67566      9.70405     14.70258        -0.099674     -0.340161     -0.128427
Ti       9.88192      9.76293      6.43263        -0.090752     -0.062674      0.142564
Ti       9.72142      9.73277     10.50197         0.276628     -0.334100      0.704420
O       1.92145      1.96490      0.43470        -0.143011      0.368092      0.041494
O       2.02350      1.90737     12.88430        -0.178372     -0.240151     -0.409010
O       1.91035     13.76821      0.35726         0.208833     -0.714382      0.772587
O       1.90095     13.63237     12.84201         0.188614      0.164788     -1.071740
O      13.85323      1.93481      0.56870        -0.089632      0.208644     -0.448758
O      13.70244      2.03410     12.80122         0.060408     -0.213512      1.484858
O      13.68736     13.70538      0.38672        -0.109106     -0.361122     -0.328220
O      13.64991     13.59621     12.92757         0.145116     -0.028299     -1.240258
O       1.93865      1.77760      4.57027         0.317826      0.443412      0.759841
O       1.74739     13.49978      4.45845         0.674614      0.221757      0.100070
O      13.56018      1.89467      4.65985         0.175371      0.015271     -0.184106
O      13.69348     13.57696      4.66991        -0.196876     -0.077896     -0.815053
O       2.03500      1.93407      8.78337        -0.102474     -0.408886      0.354908
O       2.10984     13.80721      8.76718        -0.132546     -0.430522     -0.292654
O      13.66538      1.88982      8.82097        -0.156583      0.081295     -1.040279
O      13.59330     13.65856      8.86673        -0.129820     -0.064095     -0.547738
O       1.89352      5.92347      0.43074         0.039961     -0.611773      1.071878
O       2.03873      5.92713     12.74284        -0.260983     -0.166262      0.660814
O      13.60622      5.67949      0.53587         0.497384      0.018725     -0.387630
O      13.56794      5.87408     12.90239         0.583085     -0.437602      1.146607
O       1.96934      5.73869      4.58437         0.094593      0.261827      0.299729
O      13.56599      5.94987      4.57227         0.046680     -0.194384      0.277914
O       1.84259      5.60292      8.87124        -0.104687      0.281956     -1.083491
O      13.69994      5.80267      8.81298        -0.331308      0.422740      0.586625
O       1.89424      9.76803      0.45032         0.359754     -0.075624     -0.205404
O       1.83724      9.76002     12.95050         0.192941     -0.073871      0.189901
O      13.63350      9.70338      0.43021         0.020620     -0.068524     -0.221575
O      13.81677      9.74091     12.99745        -0.518899     -0.364499      0.768957
O       2.00474      9.70032      4.62926        -0.339204     -0.013858     -0.533485
O      13.58498      9.74592      4.68542         0.041329     -0.371157     -1.250709
O       1.91185      9.88665      8.68343         0.069674     -0.423079      0.483057
O      13.77686      9.75504      8.81452        -0.172609      0.099274     -0.446950
O       5.85761      1.88047      0.35513         0.130475     -0.024746      0.653957
O       5.82098      1.90452     12.87588         0.054461     -0.214757     -0.206984
O       5.89819     13.47274      0.47282        -0.164538     -0.102966      0.223792
O       5.84640     13.59814     12.85046        -0.038546      0.150980      0.320324
O       5.86943      1.85488      4.44605        -0.005762      0.112541      0.844287
O       5.92090     13.51886      4.46332         0.012123      0.296330      1.067763
O       5.88287      1.92161      8.73414        -0.198374      0.135753      0.245092
O       5.96433     13.65367      8.73084        -0.179816     -0.321907     -0.445197
O       5.74988      5.97591      0.36758         0.232267     -0.565855     -0.543405
O       5.86591      5.77596     12.97795        -0.419952      0.225926      0.319311
O       5.78290      5.84808      4.48295        -0.005481      0.091600      0.554807
O       5.87462      5.63621      8.77439         0.087515      0.418541      0.977620
O       5.98130      9.88402      0.50071        -0.282800     -0.341699     -0.616512
O       5.75102      9.56374     12.85019         0.207615      0.615493      0.362706
O       5.88435      9.61355      4.50426        -0.145413     -0.388879      0.285062
O       5.80984      9.76643      8.73475         0.352366     -0.124579     -0.720166
O       9.91958      1.72572      0.44890        -0.540808      0.615421      0.141976
O       9.85068      1.89151     12.97454        -0.443855      0.393123      0.678513
O       9.84469     13.82127      0.47319        -0.152824     -0.660856     -1.234534
O       9.77035     13.53292     12.88747        -0.266534     -0.017127      0.066606
O       9.81804      2.11153      4.72474         0.037291     -0.293476     -2.179887
O       9.71103     13.63555      4.64717         0.258345     -0.167304     -2.135019
O       9.78525      2.02089      8.76502        -0.057293     -0.287043      0.206555
O       9.58192     13.71523      8.68221         0.358196     -0.173915      0.873535
O       9.69509      5.66418      0.41963         0.489962      0.703035      1.152577
O       9.76854      5.69686     13.04843        -0.103246     -0.126165      0.143806
O       9.74928      5.92538      4.56833         0.234649     -0.306960     -0.085239
O       9.77972      5.96319      8.96129        -0.129217     -0.452675      0.080621
O       9.90243      9.61912      0.35155        -0.537371      0.385291     -1.375715
O       9.65890      9.82438     12.92367         0.343005     -0.056627     -0.094275
O       9.99946      9.77494      4.65042        -0.302649     -0.141862     -0.127055
O       9.79215      9.61385      8.77480        -0.143130      0.047289     -0.511617
O       3.93149      1.93065      2.54183        -0.465386     -0.300188     -0.241841
O       3.94794      1.97603     15.01717        -0.489138     -0.147540     -0.015359
O       3.91619     13.55570      2.48477        -0.332168     -0.083196      0.000849
O       3.84179     13.71739     14.97049         0.428923     -0.511118      0.011015
O       0.01724      1.94939      2.68801         0.459108     -0.170261     -0.638284
O       0.03411      1.98527     14.91577        -0.246193      0.182684      0.336640
O      15.53328     13.64853      2.44560         0.487886     -0.341602      0.032383
O       0.01358     13.59620     14.92447         0.397914     -0.079233      0.240223
O       3.90587      1.83629      6.69659         0.073001     -0.152776     -0.608855
O       3.93756     13.58824      6.61577         0.037968      0.333487     -0.188711
O       0.00208      1.88773      6.80584         0.135379      0.189510     -0.574699
O      15.57503     13.61493      6.67643         0.731257     -0.293191      0.255571
O       3.87541      1.93943     10.84238         1.059834     -0.155239      0.155184
O       3.96326     13.53606     10.86232         0.066458      0.473958     -0.100695
O      15.55235      1.91598     10.88268         0.868902     -0.151137      0.055605
O       0.05919     13.64065     10.65438        -1.172534      0.301246      0.843829
O       3.90034      5.90752      2.46469        -0.937809     -0.129136      0.016696
O       3.86315      5.72368     14.99615         0.571533      0.487014      0.110812
O      15.59512      5.72841      2.66917         0.435527      0.614144     -0.641938
O       0.04224      5.93254     14.83725        -0.716870     -1.104114      0.196063
O       3.87205      5.88740      6.77797        -0.029375     -0.407490     -0.477872
O      15.55274      5.84837      6.69062         0.157779     -0.382165     -0.143716
O       3.79920      5.85187     10.77434         0.536848     -0.077907      0.287733
O      15.54527      5.88396     11.03523         0.539601     -0.469612     -0.369866
O       3.82570      9.68525      2.53174         0.823759      0.311538     -0.373358
O       3.84987      9.76677     14.99997         0.855619     -0.309903      0.350331
O      15.49228      9.68757      2.57733         1.042710      0.199412      0.099857
O      15.60156      9.67362     15.14226         0.105389      0.095842     -0.171891
O       3.94485      9.69682      6.70504        -0.145563     -0.333338     -0.165614
O       0.01337      9.74546      6.73589        -0.038762     -0.077956     -0.374539
O       3.80318      9.70075     10.81116         0.939812      0.410120      0.241927
O      15.56821      9.85453     10.93722         0.820263     -0.123845     -0.263560
O       7.83194      1.98077      2.47269        -0.259048      0.089211      0.131072
O       7.76641      1.81812     14.89173         1.299362      0.438523      0.502734
O       7.88839     13.51665      2.45818        -0.677864     -0.085073      0.376327
O       7.78272     13.62143     14.86770         0.196639     -0.246795      0.481979
O       7.84262      1.89994      6.69330        -0.955637      0.372632     -0.186411
O       7.81597     13.56837      6.55931        -0.084899      0.039982      0.538146
O       7.82387      2.00419     10.79456        -0.926607     -0.150369      0.247357
O       7.81240     13.55526     10.95839        -0.100355      0.243455     -0.503411
O       7.79943      5.77922      2.50052         0.178274     -0.090265      0.042753
O       7.81636      5.91572     15.07079        -0.675335     -0.632138      0.174884
O       7.87146      5.87551      6.56280        -1.525646     -0.039947      0.556199
O       7.73202      5.79618     10.99984         0.311152     -0.271038     -0.307740
O       7.88230      9.74493      2.64130         0.137830     -0.206447     -0.516531
O       7.77682      9.76795     14.96199        -0.420516     -0.118179      0.130083
O       7.84236      9.73725      6.60871        -0.135646     -0.131597      0.198639
O       7.75503      9.67416     10.82199         0.498940      0.104158     -0.116612
O      11.73089      1.82187      2.53577         0.357792      0.480235      0.302788
O      11.83244      1.77221     15.01371        -0.900710      0.573930     -0.216622
O      11.72876     13.63546      2.58195        -0.187051      0.026110     -0.128194
O      11.70826     13.65481     14.94884        -0.525246     -0.311851      0.166948
O      11.74656      1.87613      6.79197        -0.056422      0.486195     -0.138150
O      11.72104     13.64373      6.71442        -0.162512      0.230962      0.217686
O      11.62353      1.91382     10.94655         0.306533      0.166721     -0.606707
O      11.63960     13.59677     10.90142        -0.598678      0.227858     -0.499987
O      11.72666      5.85177      2.55389        -0.511223     -0.394187     -0.092853
O      11.70101      5.79290     15.14029         0.219639      0.024417     -0.121094
O      11.66797      5.82019      6.77559         0.354373      0.072362     -0.069646
O      11.78766      5.93993     11.12381        -1.734324     -0.170518     -0.942100
O      11.70902      9.63650      2.44925         0.318893      0.087352      0.578949
O      11.69817      9.61719     14.97953         0.323853      0.439352     -0.012304
O      11.81371      9.69944      6.77690        -0.961865      0.092936      0.234029
O      11.74071      9.65769     10.91392        -1.206266      0.260214     -0.206443
O       2.00183      3.87006      2.61339        -0.172607      0.416894     -0.655574
O       1.90071      3.89596     14.77211        -0.039795      0.648628      0.584640
O       2.01363     15.52266      2.47089        -0.230284      0.677162      0.248947
O       1.92708      0.05684     14.84977        -0.147529     -0.708007      0.290834
O      13.71771      3.85300      2.72182        -0.774977     -0.139241     -0.461956
O      13.51985      3.84716     15.06543         1.012822      0.069459     -0.164933
O      13.65118     15.51603      2.63333        -0.040623      0.560277     -0.292630
O      13.83817     15.55294     14.87718        -0.079158      0.904961      0.222523
O       1.98418      3.81398      6.66105        -0.133038     -0.228504     -0.140910
O       1.87344     15.44466      6.53765         0.485384      1.186551      0.465647
O      13.59666      3.88173      6.75206         0.072357     -0.023058     -0.297221
O      13.73568     15.56248      6.77583        -0.689563      0.318748     -0.247980
O       1.91044      3.79242     11.03911        -0.249784      0.909094     -0.359119
O       2.03512      0.00689     10.92586        -0.203750     -0.715287      0.308708
O      13.51628      3.93456     10.77905         0.406241     -0.536261      0.265144
O      13.52262     15.60272     10.86032         0.371822      0.601590      0.265560
O       1.85790      7.84588      2.62876        -0.113209     -1.199601     -0.327496
O       1.95535      7.70482     14.99731         0.411973      1.254595      0.020711
O      13.65117      7.76151      2.52835         0.189020     -0.112479      0.207707
O      13.71836      7.66706     15.12927        -0.719521      0.518172     -0.416512
O       1.90965      7.73261      6.79983         0.224966     -0.001518     -0.288599
O      13.58547      7.78080      6.82786         0.453604     -0.415325     -0.404483
O       1.91502      7.89445     10.71701        -0.529652     -1.640668      0.061712
O      13.73907      7.84229     10.84220         0.084161     -0.250537      0.077844
O       1.80040     11.68851      2.52695         0.612083     -0.415081     -0.349978
O       1.96659     11.65701     14.85302        -0.167930      0.961141      0.785244
O      13.56465     11.63000      2.49244         0.410653      0.262023     -0.071224
O      13.70148     11.67440     15.05817        -0.370524     -0.484032      0.026634
O       2.01528     11.68248      6.73624        -0.300818      0.291180     -0.395760
O      13.63088     11.66015      6.71671         0.067520      0.258536      0.366098
O       1.96131     11.73102     10.75040         0.026089      0.019934      0.520218
O      13.52638     11.70100     10.92944         0.351082      0.340203     -0.092289
O       5.76673      3.90490      2.41332         0.067162     -0.601047      0.062745
O       5.90068      3.85481     15.10584        -0.089823      0.383818     -0.330235
O       5.92125     15.54310      2.48709        -0.161156     -0.160825     -0.012278
O       5.83864     15.49700     15.05486        -0.016841      0.580773     -0.374397
O       5.76368      3.86020      6.50031         0.357249     -0.123590      0.192332
O       5.98112     15.53640      6.52455        -0.473431      0.077531      0.234576
O       5.70240      3.88803     10.94219         0.562201     -0.933988     -0.242771
O       5.88784     15.56321     10.90926        -0.224925      0.315551     -0.424384
O       5.91236      7.72100      2.38431         0.045237      1.647921      0.509654
O       5.82393      7.82186     14.98798        -0.208207     -0.538667      0.327121
O       5.89055      7.72146      6.69187        -0.091628      0.003520     -0.087664
O       5.78185      7.73127     10.84911         0.175705      0.088863     -0.197729
O       5.88521     11.57222      2.66219        -0.133042      0.689097     -0.355991
O       5.81322     11.67769     14.87877        -0.040584     -0.142938      0.400482
O       5.88906     11.59094      6.55341         0.011193      0.888800      0.377865
O       5.87774     11.63493     10.88297        -0.028424      0.227247     -0.258562
O       9.84309      3.84222      2.64407         0.099522      0.051992     -0.443798
O       9.75412      3.82872     15.31625         0.192629     -0.809499     -1.514198
O       9.64048      0.00545      2.62775         0.675415     -0.051580      0.238891
O       9.75262     15.55101     15.06547        -0.131265      0.136835     -0.509693
O       9.66759      3.92741      6.80830         0.634836     -0.062645     -0.105408
O       9.79522      0.03915      6.72425        -0.190059     -0.577353     -0.181424
O       9.69228      3.87703     10.94086         0.606041      0.053665     -0.233607
O       9.64370     15.58180     10.88667         0.169557     -0.057545     -0.361097
O       9.74891      7.76873      2.37341        -0.030760     -0.396773      0.568183
O       9.73608      7.78845     14.94391         0.114781     -0.380963      0.319922
O       9.76626      7.84384      6.71808         0.214318     -0.662859      0.071494
O       9.64898      7.74082     11.10094         0.462098      0.506625     -0.485327
O       9.86746     11.62867      2.33588        -0.104835      0.279662      0.137022
O       9.77468     11.64948     15.08463        -0.132405      0.661644     -0.269979
O       9.85103     11.71899      6.81344        -0.285217     -0.273598     -0.051081
O       9.71549     11.63834     10.65440        -0.001895      0.355477      0.377883
