  # total energy = -7883.04933629 
CRSYTAL
PRIMVEC
    15.6080000000000005    0.0000000000000000    0.0000000000000000
     0.0000000000000000   15.6080000000000005    0.0000000000000000
     0.0000000000000000    0.0000000000000000   16.6239999999999988
PRESSURE
-0.01783 -0.148394 1.31472 -0.175159 0.33664 -0.034825
PRIMCOORD
320 1
Pb       3.91720      3.79961      4.10081         0.257846      0.214724      0.160070
Pb       3.99165      3.94760      0.02475        -0.084225     -0.427654     -0.221862
Pb       3.90775     15.56842      4.00729         0.261300      0.091686      0.224340
Pb       3.89263     15.57097     16.54444        -0.190081      0.091677      0.188040
Pb       0.03001      3.88903      4.08050         0.161853     -0.305926      1.035561
Pb      15.60032      3.80648     16.60302         0.187532      0.315393      0.156217
Pb      15.58776     15.48868      4.03400        -0.153404      0.342907      0.455400
Pb      15.58502     15.59192     16.55691         0.076580     -0.170436     -0.046843
Pb       3.82870      3.79569      8.22867         0.042966      0.150530      0.119148
Pb       3.85039     15.54368      8.14235        -0.295163     -0.630811      0.541048
Pb      15.48765      3.85064      8.26264         0.424230      0.212728      0.373119
Pb      15.51739     15.54374      8.22095         1.160781     -0.219570      0.970866
Pb       3.77651      3.84018     12.46731         0.582900      0.187699      0.362425
Pb       3.88447     15.58859     12.54690         0.208694     -0.381433     -0.539891
Pb       0.06093      4.04350     12.55327        -0.095764     -0.676982     -0.370845
Pb       0.07540      0.09046     12.61371        -0.303822     -0.198534     -0.276418
Pb       3.87658      7.85084      4.00805        -0.094869     -0.043920      0.621891
Pb       3.90752      7.77742     16.51917        -0.394474      0.049948      0.241661
Pb      15.50467      7.83521      4.11555         0.798710     -0.268357      0.580049
Pb      15.57555      7.74266     16.51312         0.148463      0.008785      0.568515
Pb       3.77919      7.74388      8.30308         0.048884     -0.005866      0.073647
Pb      15.36451      7.70397      8.51489         0.663618     -0.046034     -0.646457
Pb       3.93632      7.74765     12.35998        -0.120548      0.704650      0.001068
Pb      15.50979      7.80116     12.46831         0.214309      0.901285      0.387700
Pb       3.84653     11.72135      4.02015         0.171454     -0.422752      0.733193
Pb       3.81748     11.74463     16.61573         0.292332      0.026497     -0.166377
Pb      15.52176     11.62864      4.01753         0.548926      0.183286      0.674594
Pb      15.55865     11.69490     16.53898        -0.012134     -0.219358      0.086716
Pb       3.85726     11.78763      8.31774        -0.274429     -0.293622     -0.324827
Pb       0.03670     11.68980      8.23817         0.219238      0.038328      0.244289
Pb       3.86529     11.63232     12.36948         0.053900     -0.115858     -0.165264
Pb       0.06362     11.73945     12.47486        -0.492466     -0.276304     -0.136692
Pb       7.77701      3.75467      4.13518         0.253406      0.375076     -0.232820
Pb       7.80676      3.96443     16.54420        -0.163036     -0.101352      0.843802
Pb       7.74881     15.56750      4.14502         0.206070     -0.103911     -0.223012
Pb       7.78772      0.11482     16.58561         0.345128     -0.724683      0.410440
Pb       7.77905      3.81111      8.36080        -0.399618      0.300211     -0.788167
Pb       7.82412      0.03212      8.17656        -0.277531     -0.227942      0.221860
Pb       7.84143      3.74118     12.40207        -0.420872      0.573968      1.005132
Pb       7.71323     15.56087     12.37906         0.056234     -0.039056      0.114971
Pb       7.85765      7.82406      4.17314         0.403705     -0.325835     -0.266870
Pb       7.60799      7.70407     16.59432         1.017143      0.358242      0.300855
Pb       7.80108      7.71961      8.18978         0.274820      0.105226      0.197648
Pb       7.69469      7.79371     12.40785        -0.226792     -0.196142      0.698665
Pb       7.82574     11.71827      4.14598         0.230323     -0.282450      0.164336
Pb       7.70487     11.81558     16.54195         0.158652     -0.570863      0.482330
Pb       7.86878     11.74251      8.30688        -0.294226     -0.392097     -0.393679
Pb       7.77598     11.71015     12.39240        -0.107182     -0.332984      0.392547
Pb      11.82085      3.77813      4.20927        -0.586206      0.222839      0.039866
Pb      11.68720      3.99010      0.15320         0.196910     -0.244811     -0.027605
Pb      11.62471     15.45611      4.08069         0.409742      0.379670      0.344182
Pb      11.63214     15.57401     16.52406         0.426624     -0.292224      0.652631
Pb      11.72248      4.02705      8.41010         0.296994     -0.112816     -0.125660
Pb      11.74682      0.13382      8.34374         0.059594     -0.607291      0.121954
Pb      11.74133      3.86035     12.42120        -0.139382      0.081682      0.393577
Pb      11.50908      0.08101     12.39688         0.537553     -0.085238      0.686375
Pb      11.76449      7.90606      4.23986        -0.818408     -0.562286     -0.232177
Pb      11.66702      7.80489     16.59409         0.091043     -0.275271      0.288313
Pb      11.70149      7.73555      8.36934        -0.348330      0.142002     -0.076980
Pb      11.56635      7.98897     12.50955         0.305230     -0.696321      0.434023
Pb      11.88729     11.51149      4.14801        -0.982150      0.565771      0.251438
Pb      11.56027     11.64060     16.53189         0.590701      0.083007      0.463008
Pb      11.74983     11.85785      8.50684         0.379404     -0.184828     -0.676698
Pb      11.60582     11.73228     12.44005         0.534463     -0.055949      0.027503
Ti       1.98579      2.01549      2.24023        -0.039470     -1.281465      0.382180
Ti       2.02022      2.00604     14.67983         0.433307     -0.131989      0.133216
Ti       1.90457     13.67038      2.19924         0.198377     -0.276707     -0.965982
Ti       1.90645     13.63853     14.60098         0.041183      0.542543      1.194193
Ti      13.68627      1.91057      2.31200         0.035961     -0.757443      0.728576
Ti      13.76654      1.96111     14.63422        -1.563537     -0.973303     -0.448689
Ti      13.63926     13.55518      2.11825        -0.497702      1.230994      1.453263
Ti      13.61811     13.58568     14.68318         0.080254      0.680509     -0.566951
Ti       1.89827      1.81057      6.38114         0.064759      0.194788     -0.773602
Ti       1.89873     13.53246      6.20291         0.152925     -0.014571      2.102702
Ti      13.63601      1.88211      6.42572         0.330234      0.745425     -0.388393
Ti      13.62264     13.60218      6.40452         0.140094     -0.245330      0.082127
Ti       1.99483      1.85311     10.63528        -0.818291      0.635983     -2.432576
Ti       1.90089     13.63570     10.52638         0.477582      0.429505     -1.188235
Ti      13.72948      1.99891     10.57411        -0.402022      0.215791      0.497533
Ti      13.61956     13.80287     10.65630         0.629853     -1.540973     -0.085957
Ti       1.89952      5.87096      2.22339         0.298902      0.278259     -0.346806
Ti       1.96479      5.94090     14.54913         0.022575     -0.856043      1.450351
Ti      13.61900      5.85234      2.30741        -0.102462     -0.586208     -0.804153
Ti      13.65487      5.71871     14.68581        -0.540111      1.511239      0.200728
Ti       1.88324      5.71760      6.35765        -0.154906      0.611880      0.640340
Ti      13.57684      5.87943      6.35077         0.671819     -0.704574      0.882696
Ti       1.86152      5.83298     10.59344         0.556999     -0.340918     -0.975842
Ti      13.58614      5.95559     10.69273        -0.288338     -0.827832     -0.790382
Ti       1.96273      9.71388      2.21451        -0.300940      0.817445      0.605596
Ti       1.95612      9.79470     14.72627        -0.445944     -0.759210     -0.908748
Ti      13.66894      9.67613      2.21465        -0.305029      0.093273     -2.003264
Ti      13.63158      9.65299     14.79310         0.342343      0.471861     -0.448332
Ti       2.00668      9.61349      6.41912        -0.438450      0.394437      0.604383
Ti      13.71512      9.72299      6.46835        -0.042617      0.595558      0.567811
Ti       1.90602      9.75659     10.47748         0.303045      0.357376     -0.156898
Ti      13.68845      9.85202     10.60747        -0.169597      0.256113      0.330383
Ti       5.92615      1.94058      2.14741        -0.070486     -0.190775      0.629792
Ti       5.94509      1.81728     14.62784        -1.189286      0.966671      1.232897
Ti       5.92710     13.55774      2.29275         0.039095      0.444391     -0.008189
Ti       5.82996     13.55065     14.64201        -0.289020      0.377548     -0.408936
Ti       5.81589      1.78226      6.28929         0.540061      1.350283     -0.794077
Ti       5.90312     13.47518      6.37840        -0.621918      0.056238     -1.565648
Ti       5.77566      1.95945     10.51837         0.465194     -0.796757      0.181855
Ti       5.82629     13.61526     10.53228        -0.378101      0.109817     -0.808970
Ti       5.81090      5.89434      2.19715         0.506880     -0.931549      0.773495
Ti       5.83709      5.78485     14.77175         0.039845     -0.568117     -1.545898
Ti       5.76412      5.82078      6.26660         0.128168     -1.466058      0.175530
Ti       5.73754      5.73884     10.60261         0.614675      0.651966     -1.150561
Ti       6.00775      9.71924      2.23154        -0.151880      0.457436      1.621388
Ti       5.81503      9.67633     14.62220         0.197290      0.617700      0.232100
Ti       5.88968      9.59637      6.31713        -0.004820      1.498693     -0.264382
Ti       5.89002      9.73699     10.48731        -1.019256     -0.281967      0.509258
Ti       9.86407      1.92156      2.23160        -0.958145     -0.377433      0.649773
Ti       9.85160      1.93454     14.80434         0.415788     -0.350422     -0.928240
Ti       9.83146     13.55884      2.21679        -0.447226      0.138296      0.172303
Ti       9.70256     13.60255     14.63005         0.316404      0.593900      1.139688
Ti       9.82398      1.97220      6.43262        -0.747728      0.159627     -0.432392
Ti       9.78172     13.64056      6.36306         0.079610     -0.046092      1.030868
Ti       9.73337      1.96095     10.53195         0.216044     -0.218464      1.590118
Ti       9.71491     13.64278     10.46094        -0.331048      0.258551      1.378178
Ti       9.77805      5.80469      2.26005        -0.754488      0.117473     -0.069541
Ti       9.80421      5.82883     14.81685        -0.303556      0.208124     -0.042734
Ti       9.69811      5.80561      6.35510         0.908751      0.860396     -1.292416
Ti       9.63531      5.82691     10.74543         0.336321      0.324287     -0.147468
Ti       9.85761      9.66087      2.08665        -1.306160      0.563844      0.814194
Ti       9.67288      9.69811     14.69680        -0.266535     -0.047223      0.129994
Ti       9.89234      9.76059      6.44304        -0.588437      0.010046      0.220199
Ti       9.73915      9.73527     10.49995        -0.147907     -0.371957      0.735420
O       1.91253      1.98175      0.46816        -0.122871      0.105594     -0.459459
O       2.00492      1.89692     12.89139        -0.120082     -0.095198     -0.613539
O       1.92691     13.78153      0.37929         0.096056     -0.768307      0.516977
O       1.88019     13.67219     12.85262         0.177291      0.057857     -0.801095
O      13.89791      1.97389      0.59456        -0.278040      0.029982     -1.371897
O      13.71029      1.98894     12.82965         0.071548      0.015523      1.089564
O      13.67704     13.70418      0.40360        -0.006859     -0.386928     -1.075808
O      13.68513     13.60828     12.90377        -0.015453     -0.053840     -0.327880
O       1.94549      1.76052      4.57849         0.214313      0.549052      0.362270
O       1.77594     13.46861      4.46382         0.438033      0.506962     -0.604282
O      13.55227      1.87717      4.64609         0.266346      0.087439      0.545039
O      13.67220     13.58294      4.66543        -0.108994     -0.038667     -0.552520
O       1.98787      1.93995      8.78854         0.102699     -0.272151      0.799834
O       2.12352     13.74816      8.73057        -0.180494     -0.396638      0.530789
O      13.64202      1.93039      8.80004        -0.132599     -0.147449     -0.474744
O      13.55277     13.63896      8.89201        -0.191356      0.088522     -0.923414
O       1.86799      5.86981      0.43845         0.082915     -0.216609      0.686435
O       1.98653      5.96625     12.79728        -0.132046     -0.154325     -0.416460
O      13.60459      5.70083      0.51876         0.678626      0.112035      0.489869
O      13.53903      5.87018     12.91529         0.700274     -0.304936      0.467212
O       1.99849      5.73954      4.61634        -0.005190      0.308758     -0.539544
O      13.56309      5.95309      4.59257         0.038808     -0.147672     -0.227120
O       1.83327      5.59668      8.83712         0.001893      0.597561      0.154887
O      13.64462      5.84815      8.84724        -0.087172      0.328595      0.500441
O       1.92127      9.78136      0.47234         0.179301     -0.041353     -1.004568
O       1.87513      9.77950     12.94812         0.111670     -0.130399      0.138520
O      13.67188      9.70760      0.40567        -0.003350     -0.110277      0.664649
O      13.83767      9.76604     13.02894        -0.712729     -0.403558     -0.128272
O       2.00871      9.67520      4.66503        -0.352118     -0.027361     -0.691031
O      13.59367      9.75313      4.66452        -0.014588     -0.363483     -0.512977
O       1.86054      9.89340      8.69539         0.209936     -0.344544      0.468184
O      13.73081      9.72176      8.85462        -0.162616      0.206472     -1.258509
O       5.85734      1.89456      0.37179         0.122799     -0.205119      0.240367
O       5.80917      1.88155     12.87167         0.038684     -0.232658     -0.166550
O       5.91473     13.45013      0.50109        -0.351181      0.047913     -0.372797
O       5.86913     13.59300     12.86417        -0.136076      0.179173      0.641946
O       5.88734      1.83017      4.44701        -0.196493      0.257436      1.304339
O       5.94377     13.53846      4.46861         0.068408      0.179046      1.331227
O       5.88479      1.92092      8.75677        -0.059348      0.118685     -0.427092
O       5.95816     13.65611      8.68217        -0.330339     -0.317509      0.491171
O       5.75486      5.91240      0.39139         0.286981     -0.237868     -0.046675
O       5.81486      5.78762     13.00369        -0.282829      0.113928     -0.339011
O       5.79475      5.84518      4.48873        -0.114484      0.173528      0.167790
O       5.85357      5.65382      8.81732         0.191193      0.243928      0.406161
O       5.96889      9.87953      0.51963        -0.337531     -0.202269     -1.563692
O       5.74650      9.54572     12.87387         0.214293      0.713882      0.054713
O       5.89309      9.60733      4.49819        -0.191484     -0.380872      1.403741
O       5.82136      9.74215      8.77284         0.311821     -0.125746     -1.251419
O       9.93080      1.71671      0.47641        -0.653618      0.586416     -0.977332
O       9.84770      1.91764     12.99657        -0.300536      0.232826      0.707142
O       9.87976     13.81880      0.49440        -0.211889     -0.517866     -0.990760
O       9.73245     13.49102     12.90191        -0.110625      0.184421     -0.750813
O       9.85741      2.13532      4.68230        -0.090883     -0.461926      0.017136
O       9.71595     13.66334      4.63050         0.283053     -0.347374     -0.852578
O       9.81388      1.99880      8.81960        -0.285166     -0.125956     -1.501555
O       9.58069     13.74294      8.72970         0.497611     -0.165059     -0.260077
O       9.63699      5.75516      0.41144         0.624324      0.280286      1.102008
O       9.75212      5.66739     13.07911         0.062242     -0.026924     -0.664010
O       9.79133      5.94492      4.55996         0.112902     -0.348525      0.245078
O       9.71713      5.97114      8.99076         0.034718     -0.424541     -0.482456
O       9.85422      9.60955      0.34803        -0.273642      0.380778     -0.893909
O       9.66725      9.81444     12.91159         0.423888     -0.060921      0.012747
O       9.97225      9.81476      4.68097        -0.137306     -0.242944     -0.631400
O       9.78616      9.57354      8.76771        -0.073789      0.059178     -0.190711
O       3.94224      1.89072      2.54310        -0.613759     -0.065592     -0.163456
O       3.91410      1.97986     15.01187        -0.294661     -0.277330     -0.062519
O       3.91605     13.54421      2.48924        -0.198599     -0.092523     -0.102728
O       3.85039     13.69387     14.97533         0.546749     -0.335550      0.068879
O       0.00314      1.91513      2.66334         0.807928     -0.158335     -0.202931
O       0.02224      1.96907     14.94178        -0.003230      0.325182      0.220796
O      15.53228     13.65149      2.42310         0.603036     -0.246308      0.167378
O       0.01938     13.61892     14.91205        -0.015936     -0.353223      0.462066
O       3.89481      1.86623      6.69651         0.332136     -0.205400     -0.456719
O       3.92704     13.57849      6.60333         0.149518      0.431302     -0.207587
O       0.02302      1.93198      6.80589        -0.646777     -0.105810     -0.559725
O       0.01218     13.61184      6.68356        -0.216761     -0.107708      0.102034
O       3.90698      1.94443     10.82347        -0.017576     -0.176476      0.372842
O       3.94254     13.54887     10.89019         0.143145      0.327041     -0.056636
O      15.56236      1.92336     10.84303         0.844473     -0.113886      0.333947
O       0.02537     13.63792     10.61706        -0.632853      0.245681      1.005450
O       3.87538      5.88499      2.46701        -0.135862      0.022878      0.005100
O       3.87330      5.71057     15.00020        -0.166276      0.779539      0.174252
O       0.01411      5.76429      2.69071         0.006343      0.538308     -0.569155
O       0.02011      5.92839     14.84073        -0.359743     -0.730167      0.102295
O       3.86016      5.82040      6.80172         0.273483      0.190207     -0.543207
O      15.53252      5.84878      6.68961         0.106414     -0.394708     -0.097785
O       3.80536      5.88865     10.82664         0.467599     -0.311839      0.106297
O      15.57100      5.86876     11.03096         0.053952     -0.116153     -0.324862
O       3.83469      9.72339      2.55685         0.576103      0.055500     -0.486538
O       3.90973      9.74593     15.01992        -0.030052     -0.128173      0.344215
O      15.50496      9.69475      2.59740         0.915371      0.140384     -0.067317
O      15.59359      9.67207     15.10129         0.624759      0.147251      0.039982
O       3.90250      9.67809      6.72691         0.559112     -0.386025     -0.060121
O      15.60518      9.78306      6.73040        -0.503823     -0.274794     -0.262714
O       3.83258      9.70492     10.79542         0.479983      0.541038      0.264918
O      15.56147      9.89496     10.93805         0.754838     -0.344784     -0.235430
O       7.83349      1.97685      2.48150        -0.346140      0.014964      0.012716
O       7.79173      1.83963     14.89567         0.771439      0.320968      0.441806
O       7.94227     13.56779      2.45471        -1.496630     -0.212543      0.459983
O       7.76679     13.62446     14.94044         0.171294     -0.006039      0.166263
O       7.81546      1.89887      6.65849        -0.129863      0.621939      0.231734
O       7.80229     13.54251      6.61866         0.396314      0.085178      0.256829
O       7.79033      1.98652     10.83178        -0.481013     -0.183966      0.042760
O       7.79084     13.51387     10.95680         0.450266      0.617466     -0.576353
O       7.84781      5.74766      2.53092        -0.839239      0.197210     -0.060457
O       7.78341      5.91122     15.05558        -0.097535     -0.624153      0.188347
O       7.87702      5.81558      6.56243        -2.001246      0.286179      0.649558
O       7.71723      5.80130     11.01488         0.172816     -0.368971     -0.264469
O       7.87616      9.69742      2.64561         0.230892      0.084066     -0.467943
O       7.79292      9.77034     15.00340        -0.409241     -0.314298     -0.090881
O       7.86661      9.75719      6.64269        -0.748472     -0.312624      0.120097
O       7.76739      9.70518     10.84535         0.740296     -0.084347     -0.125640
O      11.71122      1.85829      2.54774         0.983615      0.443072      0.189097
O      11.82539      1.75685     15.04101        -0.635194      0.891645     -0.382280
O      11.70989     13.66167      2.57447         0.694706     -0.259132      0.009246
O      11.71055     13.66294     14.94383        -0.196509     -0.332487     -0.058806
O      11.73413      1.89848      6.82706        -0.108905      0.288528     -0.280674
O      11.68849     13.66486      6.72709         0.266666      0.214745      0.208614
O      11.63350      1.93328     10.94013         0.046738     -0.181977     -0.448380
O      11.62514     13.61078     10.90973        -0.638453      0.266946     -0.378059
O      11.73833      5.84379      2.54813        -0.178152     -0.250302     -0.153746
O      11.71126      5.75493     15.20629        -0.173185      0.290809     -0.572462
O      11.67414      5.79982      6.78832         0.282775      0.296958     -0.007959
O      11.78658      5.89213     11.09751        -1.759277      0.137638     -0.774121
O      11.70276      9.65180      2.44879         0.913823     -0.037314      0.592380
O      11.69940      9.66988     15.01468         0.066732      0.308776     -0.253055
O      11.77668      9.72080      6.75583         0.002555     -0.025843      0.361253
O      11.71779      9.66048     10.92988        -1.095010      0.261176     -0.218866
O       1.98164      3.86229      2.56200        -0.095322      0.546078     -0.152191
O       1.89120      3.92979     14.78005        -0.091880     -0.094637      0.396345
O       2.05948     15.54137      2.49821        -0.646027      0.085070      0.091724
O       1.89750      0.02398     14.84557         0.079800     -0.095239      0.424760
O      13.75752      3.84963      2.71324        -0.819675      0.297674     -0.435592
O      13.51745      3.88695     15.09320         1.060862     -0.934741     -0.368827
O      13.64401     15.52089      2.65031         0.055109      0.236487     -0.516753
O      13.82196     15.57078     14.91028        -0.061010      0.447211      0.116832
O       1.95173      3.81111      6.65194        -0.002287      0.098651     -0.021607
O       1.87879     15.49153      6.60488         0.449353      0.412478      0.099049
O      13.59537      3.87237      6.78281        -0.033904      0.076647     -0.481278
O      13.75625     15.58184      6.80595        -1.023988     -0.009987     -0.538375
O       1.92292      3.83844     10.99065        -0.220130      0.665707      0.148549
O       2.06289     15.59989     10.87313        -0.305604     -0.132433      0.502353
O      13.51276      3.91545     10.78741         0.618786     -0.179318      0.389640
O      13.55371      0.00524     10.84840         0.065544      0.544797      0.321636
O       1.85259      7.85072      2.61063         0.060437     -1.336261     -0.281551
O       1.97561      7.78863     15.01691         0.279569      0.014761     -0.030261
O      13.68100      7.78653      2.57495        -0.085714     -0.500625     -0.059080
O      13.67000      7.65732     15.16678        -0.437166      0.662486     -0.667883
O       1.85396      7.72815      6.82469         0.433092     -0.042259     -0.172204
O      13.59239      7.75518      6.85234         0.264138      0.462487     -0.552984
O       1.93379      7.91618     10.67921        -0.654464     -1.839119      0.296652
O      13.69746      7.87480     10.85315         0.225328     -0.700900      0.336968
O       1.80792     11.67574      2.53821         0.411354     -0.109905     -0.415070
O       1.99139     11.67142     14.85269        -0.224193      0.719816      0.847387
O      13.60158     11.60455      2.50767         0.152408      0.768238     -0.158194
O      13.70361     11.64123     15.06578        -0.321488      0.462857     -0.086296
O       2.00355     11.68526      6.72250        -0.232896      0.141495     -0.283885
O      13.64550     11.70301      6.71401        -0.218888     -0.387620      0.354224
O       1.96989     11.76384     10.79717        -0.013975     -0.628221      0.434181
O      13.49069     11.71148     10.91591         0.288034      0.129840      0.069012
O       5.75567      3.85310      2.44167         0.190826      0.481030      0.018023
O       5.86671      3.84202     15.13360         0.160189      0.149988     -0.499500
O       5.92380     15.53064      2.52759        -0.145243     -0.285652     -0.380438
O       5.82083     15.53584     15.07867         0.033065      0.086234     -0.509940
O       5.79072      3.87167      6.50856         0.240525     -0.011763      0.307153
O       6.00802     15.54808      6.52264        -0.639822     -0.087407      0.352999
O       5.71737      3.84143     10.95578         0.440507      0.089756     -0.302451
O       5.84788     15.50685     10.88081         0.098820      0.935234     -0.079680
O       5.91567      7.77368      2.41032        -0.154643     -0.202992      0.211108
O       5.83618      7.77832     14.98077        -0.328327      0.095858      0.516911
O       5.87363      7.72800      6.68334        -0.007692     -0.122944      0.027343
O       5.81307      7.76689     10.85455         0.031568     -0.505005     -0.125241
O       5.91602     11.57868      2.74338        -0.119059      0.803340     -0.889985
O       5.81676     11.65202     14.90998        -0.027077      0.346905      0.213452
O       5.85051     11.59214      6.59381         0.118408      0.390158      0.171378
O       5.88671     11.67346     10.89342        -0.258124     -0.459571     -0.158109
O       9.81896      3.83734      2.64932         0.183909      0.624137     -0.602240
O       9.76856      3.83759     15.29764         0.092483     -0.747780     -1.117930
O       9.69298      0.05557      2.65467         0.367806     -0.629956      0.189494
O       9.74879     15.56461     15.06575        -0.132702     -0.069329     -0.584320
O       9.70920      3.96689      6.80831         0.439884     -1.175210      0.199661
O       9.75739      0.03788      6.69267         0.018483     -0.354823      0.069079
O       9.67620      3.87123     10.96206         0.553175      0.032875     -0.374037
O       9.59833     15.58849     10.92468         0.530283     -0.220980     -0.474747
O       9.75291      7.78152      2.41163         0.072196     -0.597954      0.618030
O       9.80520      7.78611     14.95045        -0.113451     -0.229842      0.018632
O       9.76466      7.80417      6.68772         0.191928     -0.214923      0.265734
O       9.65578      7.68943     11.12654         0.521779      1.168851     -0.487671
O       9.86646     11.61604      2.33214        -0.055757      0.397100      0.304385
O       9.75668     11.69775     15.10537        -0.028052      0.114125     -0.444108
O       9.84810     11.72197      6.87757        -0.186377     -0.094438     -0.242959
O       9.72729     11.62561     10.64118         0.156872      0.438808      0.316387
