  # total energy = -7882.95806504 
CRSYTAL
PRIMVEC
    15.6080000000000005    0.0000000000000000    0.0000000000000000
     0.0000000000000000   15.6080000000000005    0.0000000000000000
     0.0000000000000000    0.0000000000000000   16.6239999999999988
PRESSURE
-1.15578 -1.08057 -0.331965 -0.198099 0.335701 -0.01005
PRIMCOORD
320 1
Pb       3.97882      3.83876      4.17601        -0.404958      0.003341     -0.502693
Pb       3.87584      3.87296      0.02664        -0.303392     -0.095323     -0.207433
Pb       3.92290      0.00975      4.13770         0.337092     -0.033740     -0.173152
Pb       3.83834     15.53762     16.58079         0.132418      0.085782     -0.443960
Pb      15.48648      3.84841      4.09371         0.641118      0.044165      0.293259
Pb      15.58235      3.82754     16.58948        -0.731804      0.358156     -0.288999
Pb       0.02557     15.57619      4.08594        -0.303416      0.424826      0.770649
Pb       0.05737     15.60702      0.00604        -0.269120     -0.072117     -0.378407
Pb       3.88876      3.88969      8.29313        -0.003225     -0.008925     -0.105339
Pb       3.97453      0.13520      8.34391        -0.111346     -0.603206     -0.103564
Pb      15.55332      3.93750      8.23115        -0.156427     -0.434108      0.175754
Pb       0.06438     15.60270      8.26871        -0.016876      0.117014     -0.306227
Pb       3.71588      4.00830     12.58715         0.429971     -0.524606      0.074572
Pb       3.80900     15.46499     12.46678         0.111691      0.347641      0.130372
Pb      15.56672      3.85702     12.42358        -0.474495     -0.023919      0.373078
Pb       0.06456     15.59827     12.45618        -0.285016     -0.438655     -0.108428
Pb       3.74997      7.85618      4.04309         0.142061     -0.609453      0.390055
Pb       3.80329      7.68875     16.56504         0.131305      0.523217      0.389661
Pb       0.01071      7.88830      4.02157         0.143498     -0.507488      0.360116
Pb      15.57241      7.78379     16.60028        -0.170680     -0.257261      0.031605
Pb       3.95896      7.79111      8.32240        -0.392317      0.257314     -0.270182
Pb      15.45733      7.77874      8.46699         0.224630      0.342477     -0.794319
Pb       3.86217      7.85394     12.53243        -0.131694      0.165448     -0.592919
Pb      15.46023      7.72725     12.47499         0.177752      0.418468     -0.343482
Pb       3.90850     11.71130      4.12951        -0.086073      0.189454     -0.204142
Pb       3.87417     11.67929     16.53568         0.241617     -0.191049     -0.421591
Pb      15.59532     11.80912      4.10893        -0.021527      0.012868      0.411608
Pb       0.02540     11.80678      0.07270        -0.117173     -0.024641     -0.333900
Pb       3.85727     11.80856      8.31635        -0.071121     -0.699032     -0.274937
Pb      15.46679     11.68666      8.18350         1.016339     -0.311719      0.103493
Pb       3.81879     11.78759     12.42064        -0.043074     -0.631026     -0.367769
Pb      15.59143     11.53732     12.40374         0.214056      0.273510     -0.195354
Pb       7.72775      3.76328      4.11453         0.146125      0.094623     -0.040916
Pb       7.63905      3.77722     16.56707         1.087664      0.218293      0.364256
Pb       7.72085     15.52736      4.11135        -0.089982      0.222330     -0.064766
Pb       7.77851     15.56826      0.01487        -0.099177     -0.003968     -0.047463
Pb       7.74823      3.86265      8.45293        -0.010735      0.037418     -0.106725
Pb       7.87237     15.54532      8.41523        -0.672205      0.067033     -0.426851
Pb       7.79560      3.83764     12.51511        -0.235813     -0.091779     -0.783155
Pb       7.89609      0.04727     12.53083        -0.511102     -0.213758     -0.485696
Pb       7.73454      7.79613      4.00586         0.353654      0.231139      0.552876
Pb       7.76869      7.84182     16.53668         0.532558     -0.177630     -0.176423
Pb       7.93881      7.85384      8.32236        -0.407395     -0.076804     -0.404544
Pb       7.93467      7.66353     12.48469        -0.442106      0.457116     -0.402042
Pb       7.79129     11.77577      4.03824         0.177542     -0.234896      0.437554
Pb       7.77026     11.64095     16.52986         0.283504      0.140341     -0.193307
Pb       7.67263     11.68513      8.29736        -0.077815      0.116827     -0.168247
Pb       7.80138     11.58526     12.48190        -0.113423      0.371134     -0.514087
Pb      11.75753      3.94412      4.28689        -0.370794     -0.267420     -0.215213
Pb      11.76007      4.00520      0.09078         0.214516     -0.607528     -0.547808
Pb      11.61696      0.10379      4.19330         0.226984     -0.036835      0.248688
Pb      11.64758     15.57626     16.56941         0.584467      0.155415      0.014355
Pb      11.63421      4.01025      8.35546         0.427979     -0.399065     -0.160872
Pb      11.49256     15.54429      8.25416         0.664764      0.609333     -0.049226
Pb      11.73463      3.77277     12.45765         0.251803      0.339492     -0.590042
Pb      11.67743     15.48502     12.39405         0.393161      0.261451     -0.046298
Pb      11.75691      7.62694      3.97546        -0.592880      0.666431      0.544788
Pb      11.66603      7.77773      0.00617        -0.064365      0.380771     -0.340537
Pb      11.65007      7.83955      8.15582         0.458270     -0.400923      0.442227
Pb      11.56047      7.84538     12.51588         0.515472     -0.150956     -0.538242
Pb      11.70806     11.63366      4.31118        -0.203539      0.185965     -0.599018
Pb      11.90079     11.73239     16.58609        -0.751499     -0.193912     -0.118892
Pb      11.75056     11.77051      8.36229        -0.264499     -0.020894     -0.886060
Pb      11.61865     11.67920     12.34067         0.248637     -0.187322      0.544600
Ti       1.92658      1.94886      2.11739         0.298945      0.728414      0.965542
Ti       1.91368      1.94790     14.64709        -0.200773     -0.683302     -0.562683
Ti       1.91070     13.77989      2.20162         0.946713     -0.978848     -0.209242
Ti       1.90653     13.58592     14.66134        -0.227405      0.321324      0.659040
Ti      13.61763      1.92359      2.19802         0.006920     -0.077441     -0.364815
Ti      13.64776      1.78808     14.62430        -0.481265      0.778829      0.772541
Ti      13.61823     13.75446      2.24553         0.420447     -0.671850      0.223059
Ti      13.67314     13.57051     14.64409         0.143517      0.616915     -0.024248
Ti       1.99560      1.85024      6.30667        -0.745787      0.522008      0.204905
Ti       2.01512     13.61410      6.38759        -0.971457     -0.062415     -0.487571
Ti      13.61452      1.90552      6.42817        -0.155745      0.165431      0.521652
Ti      13.61463     13.72251      6.42823         0.238372     -0.216080     -0.621665
Ti       1.98253      1.94784     10.54580        -0.731007     -0.888661     -0.358812
Ti       1.95163     13.64839     10.46614        -1.104555     -1.477037     -0.752720
Ti      13.72678      1.89599     10.50166        -0.582763      0.614105     -1.577533
Ti      13.66789     13.59964     10.42521         0.848216      0.225565      1.364573
Ti       1.94050      5.78839      2.17254         0.262865      0.136289     -0.254009
Ti       2.03618      5.81701     14.66286        -1.877739      0.172635      1.115420
Ti      13.61485      5.76555      2.27189         0.736128     -0.112219     -1.129973
Ti      13.68274      5.76014     14.64610         0.053274     -0.574080      0.883749
Ti       2.01127      5.70285      6.38839        -0.939525      1.192807      0.578965
Ti      13.66464      5.83451      6.38792        -0.203632      0.038929     -0.191084
Ti       1.96829      5.68750     10.50413        -0.737740      1.942270     -0.804725
Ti      13.62793      5.86853     10.56744        -0.930146     -0.121208      0.050948
Ti       1.89927      9.79168      2.13620         0.271367     -0.407670     -0.309445
Ti       1.86194      9.67098     14.71940         0.623267      0.845889     -0.484445
Ti      13.64799      9.84422      2.19743        -0.776996     -0.543966     -0.124884
Ti      13.68417      9.68233     14.73701        -0.574715      0.506757      0.351035
Ti       1.99025      9.64758      6.45261        -0.477292     -0.048813      0.145462
Ti      13.64255      9.76576      6.26330         0.898905     -0.347344      0.075963
Ti       1.95579      9.59998     10.46015        -0.281076      1.040584      0.281961
Ti      13.60587      9.74922     10.49820         0.233545     -1.299075     -0.324022
Ti       5.81676      1.97145      2.11883        -0.118725     -1.244864      0.211067
Ti       5.82441      1.87196     14.62253        -0.342924     -0.215975     -0.164886
Ti       5.86834     13.62559      2.13094        -0.552319      0.610457      0.126411
Ti       5.83052     13.63019     14.67570         0.131534     -0.190643      1.444595
Ti       5.83565      1.98381      6.45872         0.035230     -1.106205     -1.187974
Ti       5.82861     13.67816      6.33871         0.141085      0.126409     -0.226518
Ti       5.75508      1.95062     10.61399         0.934218     -0.181490     -0.463322
Ti       5.85364     13.73743     10.55701         0.842097     -0.765982     -0.511459
Ti       5.91203      5.86535      2.11803        -1.332193     -0.069423     -0.545134
Ti       5.90066      5.78546     14.74569         0.330051      0.322370     -0.505417
Ti       5.88019      5.83244      6.36313         0.147869      0.446244      0.478367
Ti       5.75687      5.88779     10.53956         0.993852     -0.053665      0.193414
Ti       5.80547      9.74344      2.14803         0.058602      0.123946      0.099881
Ti       5.88829      9.67056     14.57996        -0.739613      0.638361      2.558296
Ti       5.88696      9.70438      6.27520        -0.194823      0.239969      0.717276
Ti       5.74714      9.78436     10.46766         0.597073      0.201512      1.084924
Ti       9.72350      1.93498      2.22262        -0.002207     -0.076884     -0.583780
Ti       9.78032      1.89598     14.68940         0.846548      0.381626      0.028153
Ti       9.91984     13.64974      2.16605        -1.039802     -0.878852      0.934657
Ti       9.76433     13.66392     14.65222         0.290481     -1.403361      0.626981
Ti       9.61020      1.99391      6.39028         1.035168     -0.591511      0.531527
Ti       9.64588     13.64573      6.36831         0.797009     -0.288161      0.228305
Ti       9.76807      1.94401     10.54094        -0.131364      0.227739      0.808911
Ti       9.72953     13.64538     10.54096        -0.995999     -0.458805      0.320692
Ti       9.64859      5.83286      2.15510         1.255437     -0.607439      0.238424
Ti       9.79452      5.76810     14.64137        -0.127416      0.392221      1.471618
Ti       9.66006      5.83364      6.38519         0.842321      0.491795     -0.094310
Ti       9.73072      5.83375     10.48862         0.875562      0.391885      0.232699
Ti       9.71116      9.73329      2.18842         1.034275      0.757469     -0.291583
Ti       9.80470      9.79735     14.63235         0.316208     -0.128714      1.380635
Ti       9.77767      9.79083      6.33096        -0.649725     -0.653427      1.094513
Ti       9.70838      9.71315     10.46418        -0.080459     -0.031631      1.352037
O       1.95263      1.93495      0.34361        -0.003548      0.059227     -0.777613
O       1.85913      1.94504     12.81711         0.228699     -0.379171      1.124538
O       1.91439     13.69554      0.40185         0.138178      0.292052      0.323953
O       1.95887     13.65772     12.90890        -0.229263     -0.207634     -1.340213
O      13.64535      1.88392      0.42756         0.148764     -0.002247      0.371926
O      13.70592      1.84665     12.83245        -0.225784      0.059107     -0.395253
O      13.75851     13.58557      0.48522        -0.401257      0.415700     -0.042728
O      13.76165     13.52874     12.89431        -0.320183      0.279358     -0.685792
O       2.12232      1.92217      4.52782        -0.132223      0.128901      0.160525
O       1.99684     13.73867      4.53185         0.162372     -0.640855      0.336885
O      13.56740      1.90750      4.63791         0.013723      0.190754     -0.319852
O      13.69703     13.66501      4.63344        -0.324332     -0.147472     -0.301937
O       2.00764      1.85401      8.74138         0.044509      0.201605      0.663247
O       1.84634     13.72056      8.65523         0.361062     -0.289015      0.659288
O      13.72961      2.06845      8.66506         0.086318     -0.777031      1.732174
O      13.63548     13.52972      8.66514        -0.002809     -0.106152     -0.267732
O       2.04619      5.81144      0.33873        -0.362896     -0.167260      1.007642
O       1.87420      5.86345     12.91229         0.644175     -0.008457     -1.145163
O      13.66375      5.53400      0.45349        -0.153339      0.881374      1.076439
O      13.64989      5.80421     12.86177         0.191675      0.171889      0.347907
O       2.04379      5.83515      4.65187        -0.155230     -0.241716     -0.719538
O      13.61527      5.71310      4.56124        -0.162093      0.044219      0.034529
O       1.96523      5.61853      8.71496         0.094560     -0.075070      0.687919
O      13.56015      5.89276      8.78007         0.447740     -0.200275     -0.351071
O       1.87395      9.67427      0.34793         0.360003      0.101221      0.400374
O       1.77971      9.72183     12.92193         0.487654     -0.382466      0.205875
O      13.64829      9.75128      0.37027        -0.088254      0.074183      0.968055
O      13.80866      9.74228     12.98480        -0.368395     -0.309013     -1.033872
O       2.00351      9.62820      4.63730        -0.127106      0.048766     -0.274441
O      13.66512      9.88963      4.45885         0.341600     -0.575540      0.444134
O       1.94986      9.68541      8.70599         0.028562      0.135161     -0.099544
O      13.76020      9.60353      8.71674        -0.598433      0.787568     -0.033982
O       5.99563      1.91264      0.32781        -0.376097      0.181527      0.017901
O       5.91351      1.91503     12.78709        -0.122900      0.092827      1.169041
O       5.84959     13.61192      0.31569        -0.030713      0.121336      0.878294
O       5.80556     13.65840     12.96896         0.005054      0.199040     -1.696644
O       5.76133      1.94688      4.59676         0.142173      0.401199      0.698286
O       5.76465     13.67210      4.51393        -0.080885      0.028601      0.620262
O       5.69355      1.76219      8.75336         0.354113      0.849196      0.970549
O       6.01808     13.75249      8.74566        -0.282420     -0.360441      0.659240
O       5.87451      5.76447      0.28934         0.049768     -0.107407      0.905007
O       5.82073      5.79086     12.96243        -0.048168     -0.259436     -0.429754
O       6.02447      5.80019      4.62405        -0.420026     -0.192737     -1.177126
O       5.78552      5.92316      8.77635         0.077781     -0.284223     -0.023805
O       5.81015      9.89865      0.37558         0.091803     -0.454720      0.413446
O       5.89835      9.72958     12.89089        -0.163615     -0.131766     -1.168065
O       6.01319      9.72145      4.47455        -0.693268     -0.164770      0.704419
O       5.68545      9.79354      8.70424         0.693292     -0.043613      0.574326
O       9.69226      1.75379      0.41156         0.148989      0.358443      0.757742
O       9.77472      1.87343     12.86223         0.160991      0.080730      0.201631
O       9.91801     13.60000      0.41187        -0.424672      0.106827     -0.338490
O       9.77183     13.53904     12.89481         0.207662      0.590846     -0.846995
O       9.64293      1.88500      4.61211         0.033009      0.291966     -0.046822
O       9.78550     13.54181      4.64443        -0.041333      0.622913     -0.728232
O       9.72266      1.99998      8.81444        -0.135797     -0.220257     -0.987071
O       9.63653     13.63724      8.75634         0.086232     -0.352886     -0.192300
O       9.66803      5.69854      0.41311         0.498343      0.392710     -0.417310
O       9.65730      5.89420     12.88682         0.386359     -0.105900     -0.336751
O       9.76323      5.85882      4.60918        -0.269643     -0.232641     -0.256323
O       9.89192      5.84685      8.70889        -0.717238      0.159553      0.117909
O       9.92363      9.80468      0.42837        -0.722699      0.028707      0.331528
O       9.71880      9.64542     12.88657         0.108396      0.117959     -0.927303
O       9.51468      9.55068      4.65317         0.293597      0.371488     -1.590587
O       9.73982      9.66314      8.72287         0.146659      0.371300     -0.881838
O       3.88857      1.96310      2.36012         0.006192      0.212988      0.164371
O       3.89910      1.96221     14.99144         0.410823     -0.149351     -0.340181
O       3.88718     13.66633      2.37819        -0.542573     -0.262228      0.353945
O       3.83418     13.64947     14.84097         0.787156      0.110482      1.010342
O       0.04664      1.92057      2.49759        -0.920334      0.239259      0.144741
O      15.55670      1.92787     14.94364         1.143203     -0.124288      0.157015
O      15.60347     13.76251      2.51263        -0.175229     -0.478081      0.271952
O       0.04678     13.83390     15.11463        -0.606049     -0.956280     -0.516371
O       3.94748      2.02743      6.68575        -0.893621      0.084950      0.126349
O       3.93878     13.61549      6.72989        -0.575905     -0.045052     -0.189210
O      15.57797      1.71835      6.56136         0.350986      0.421798      0.222273
O       0.04144     13.57888      6.55612        -0.321671      0.486604      0.513471
O       3.83797      1.80501     10.96676         0.638735      0.821592     -0.377926
O       3.90375     13.58835     10.65248         0.009630      0.225055      0.772756
O       0.04363      1.95906     10.77089        -0.330117     -0.645165      0.229450
O      15.57338     13.52401     10.80015        -0.001358      0.198876     -0.226849
O       3.94117      5.91159      2.47615         0.487093     -0.786523     -0.055961
O       3.87791      5.77716     15.07943         1.136949      0.126457     -0.721015
O       0.00457      5.81741      2.58508         0.011452     -0.198165     -0.252550
O      15.55856      5.71956     15.08234         0.576401      0.640082     -0.439840
O       3.93249      5.71983      6.62958         0.000914     -0.339805      0.301685
O      15.58899      5.71085      6.64796        -0.256184      0.503904      0.118302
O       3.87384      5.62659     10.81322         0.078339     -0.234804      0.374459
O       0.00431      5.91280     10.81100         0.571715     -0.098377      0.000526
O       3.83366      9.62606      2.54224         0.558482      1.013703     -0.452318
O       3.83230      9.74066     14.94793         0.745027     -0.177129     -0.123051
O       0.01877      9.60680      2.39228        -0.752658      0.030832      0.443086
O      15.57549      9.66209     15.00239         0.285941     -0.160221      0.474074
O       3.90525      9.81316      6.79501         0.598248     -0.384824     -0.935294
O      15.57830      9.73186      6.61681        -0.038136      0.110506      0.044360
O       3.90094      9.84573     10.86025         0.070433     -0.210505      0.364735
O       0.03468      9.55652     10.74169        -0.250351      0.240906      0.419292
O       7.66607      1.76917      2.56575         1.469019      0.292568     -0.087791
O       7.91581      1.71764     14.97302        -0.499893      0.507300     -0.354354
O       7.77212     13.74597      2.56767        -0.138779     -0.560066     -0.704518
O       7.83472     13.75751     14.97994         0.005932     -0.280894     -0.027428
O       7.74579      1.95540      6.84012         0.545290     -0.103111     -0.187846
O       7.76478     13.75047      6.63453        -0.172726     -0.559672      0.081238
O       7.79715      1.90905     10.83885         0.447909     -0.292784      0.110748
O       7.81140     13.74098     10.99797         0.199731     -0.337088     -0.362150
O       7.84223      5.85109      2.38839        -1.658442      0.275466      0.475430
O       7.83799      5.88168     14.98618        -0.070408     -0.102544     -0.123008
O       7.79314      5.97416      6.68161         0.252839     -0.572944      0.539757
O       7.83330      6.01666     10.75458        -0.690275     -0.279923      0.203862
O       7.78063      9.73567      2.44428        -0.041066      0.075402     -0.381213
O       7.86187      9.74550     14.99077        -1.224048     -0.334449      0.138139
O       7.75735      9.85077      6.82444        -0.113292     -0.845603     -0.368628
O       7.79129      9.67019     10.81911        -0.466134     -0.189469     -0.258927
O      11.68240      2.00536      2.55835        -0.744686     -0.228182     -0.060733
O      11.76997      1.89460     15.07966        -0.865772      0.265581     -0.489808
O      11.75411     13.63778      2.53312         0.170577     -0.278241      0.175906
O      11.75163     13.51285     14.95844         0.152830     -0.011327      0.025284
O      11.67682      1.81936      6.79053        -0.941921      0.570591     -0.541056
O      11.65704     13.67471      6.77713        -0.136522     -0.563014     -0.056741
O      11.76190      1.99005     10.79524        -0.198085     -0.225533      0.334689
O      11.64992     13.55787     10.81008         0.712701     -0.080674     -0.088318
O      11.63067      5.59922      2.54706         0.504284      0.566658     -0.225840
O      11.74685      5.79189     15.07788        -0.530778     -0.136070     -0.373562
O      11.69318      5.81966      6.72197         0.269897     -0.095070     -0.380888
O      11.69056      5.80209     10.89751         0.031584     -0.118512      0.203714
O      11.70013      9.67306      2.57852         0.426367      0.495579      0.040713
O      11.68854      9.81087     14.94813         1.061932      0.060358      0.008484
O      11.72217      9.78090      6.49467        -0.121382     -0.063053      0.322387
O      11.69440      9.68351     10.84226        -0.023724      0.502550      0.022846
O       1.96842      3.88859      2.45957         0.076950     -0.028351      0.141330
O       2.07067      3.92292     14.81841        -0.424102     -1.083688      0.458350
O       1.81172      0.05729      2.48958         1.032488     -0.721996     -0.327344
O       1.91376     15.60579     14.89321         0.519816      0.807741      0.379824
O      13.69182      3.80471      2.51804        -0.035287      0.326761      0.548973
O      13.69549      3.79332     15.04552        -0.412470      0.610096     -0.584361
O      13.58456      0.00871      2.59041         0.184548      0.052544     -0.122240
O      13.58841     15.52278     14.91246         0.203596      0.333494      0.263569
O       1.81813      3.74474      6.72721         0.736746      0.734126     -0.343898
O       2.02181     15.59489      6.62381         0.122862     -0.479902      0.160433
O      13.61178      3.87551      6.69944         0.042008      0.037168     -0.212017
O      13.50773     15.55495      6.79552         0.698481      0.018815     -0.060505
O       1.86984      3.82513     11.01394         0.614451      0.399920     -0.784886
O       1.96290     15.48871     10.85699        -0.306366      1.016372      0.126975
O      13.74142      3.90532     10.84886        -0.219493     -0.498147      0.148018
O      13.70199     15.48004     10.71720        -0.277280      0.809805      0.144123
O       1.98919      7.70594      2.47844        -0.496806      0.554827      0.181080
O       1.92785      7.74535     15.00978         0.002456     -0.012940     -0.035118
O      13.61910      7.66994      2.50338        -0.020556      0.250006     -0.159678
O      13.58789      7.76441     15.09310         0.379472     -0.418380     -0.360511
O       1.97550      7.72815      6.84234         0.109384     -0.245071     -0.505388
O      13.64762      7.80969      6.67237         0.018258     -0.405205     -0.511798
O       2.23341      7.73293     10.63892        -0.350634     -0.706537      0.687967
O      13.60474      7.81300     10.79999         0.275064     -0.566804      0.759617
O       1.76467     11.66581      2.40164         0.663478      0.313038      0.318687
O       1.86779     11.69591     15.04066        -0.078157     -0.186392     -0.155495
O      13.71101     11.68139      2.50503         0.113843      0.342011     -0.101211
O      13.79847     11.73372     15.03074         0.049112     -1.034301      0.218508
O       1.95772     11.64799      6.75549         0.162727      0.778327     -0.416319
O      13.63296     11.70453      6.70193        -0.442111     -0.361758     -0.017327
O       1.98210     11.64080     10.85618        -0.190199      0.543994     -0.105768
O      13.59682     11.58403     10.84127         0.230310      1.048959     -0.359576
O       5.94846      3.88442      2.41435        -0.221705      0.402672      0.178253
O       5.99494      3.79215     14.94186        -0.344009      0.312760     -0.178910
O       5.70013      0.02500      2.51104         0.437478     -0.814068     -0.405147
O       5.88297      0.02318     15.03198        -0.536331     -0.439207     -0.223623
O       5.95991      3.86929      6.75542        -0.231394      0.702310      0.176469
O       5.73733      0.02079      6.69934         0.361507     -0.258511     -0.343294
O       6.04981      3.84290     10.69661        -0.681281      0.328587      0.355525
O       5.83932     15.58008     10.88125        -0.175162      0.193250      0.221551
O       5.84833      7.78686      2.29578         0.419350     -0.148434      0.315104
O       5.87461      7.72767     14.95716        -0.161247      0.793079      0.104705
O       5.85830      7.77940      6.67169        -0.170727      0.595149     -0.241806
O       5.57008      7.76910     10.93459         0.702970      0.090782     -0.510983
O       5.79143     11.68229      2.56005         0.003656      0.309132     -0.402958
O       5.84264     11.69222     14.99410         0.251597     -0.151865     -0.297622
O       5.87707     11.74030      6.62009        -0.088546     -0.196363      0.073458
O       5.89838     11.73056     10.95136         0.029182     -0.371153     -0.547524
O       9.53329      3.80441      2.53219         0.312639     -0.193747     -0.202154
O       9.78720      3.86289     14.90163        -0.259219     -0.308366     -0.146197
O       9.84489     15.49484      2.56812        -0.354149      1.151189      0.040154
O      10.04236     15.50892     14.91155        -0.924170      0.836806     -0.224601
O       9.70650      3.89167      6.77429        -0.144489     -0.198339     -0.386757
O       9.64214     15.58365      6.64269         0.365671      0.494628      0.494153
O       9.73219      3.95419     10.77865        -0.223486     -0.826273      0.539567
O       9.82902     15.56569     10.72432        -0.021891      0.306035      0.633259
O       9.81735      7.82016      2.38973        -0.338397     -1.154557      0.196402
O       9.90108      7.82534     15.03913        -0.611694     -0.821811     -0.085558
O       9.80146      7.78123      6.72261        -0.545720      0.152356      0.061744
O       9.86727      7.81353     10.87187        -0.580312     -0.487153     -0.019853
O       9.77400     11.72066      2.71135        -0.056450     -0.481062     -0.708118
O       9.69778     11.67263     14.95122        -0.095536      0.417897      0.044697
O       9.79327     11.65051      6.54388        -0.220875      0.691839      0.717098
O       9.69704     11.62491     10.89064         0.082322      0.471359     -0.383141
