  # total energy = -7880.81758778 
CRSYTAL
PRIMVEC
    15.6080000000000005    0.0000000000000000    0.0000000000000000
     0.0000000000000000   15.6080000000000005    0.0000000000000000
     0.0000000000000000    0.0000000000000000   16.6239999999999988
PRESSURE
-0.458891 -0.622107 -0.549659 -0.073533 -0.009177 -0.028764
PRIMCOORD
320 1
Pb       4.03516      3.92205      4.23219        -0.269457     -0.373479     -0.202423
Pb       3.92956      3.93399     16.58036        -0.083755      0.201201      0.029748
Pb       3.94349      0.07658      4.08365        -0.446186     -0.174819      0.147665
Pb       3.83173     15.58051     16.47492        -0.058088      0.034105      1.258279
Pb      15.57985      3.86477      4.11177        -0.044506     -0.466925      0.224015
Pb      15.57339      3.78600     16.60313         0.283876      0.115393      0.130053
Pb      15.55046     15.58631      4.07853         0.107961      0.548521      0.061493
Pb      15.60555      0.03048     16.60405        -0.067852     -0.271154      0.348131
Pb       3.83837      3.83986      8.25371         0.244100      0.048107      0.194016
Pb       3.98334      0.05230      8.23896        -0.150036     -0.073260     -0.580745
Pb      15.52321      3.92497      8.25806         0.313479     -0.418556      0.653191
Pb       0.03204     15.57524      8.24862         0.134559      0.041173      0.082218
Pb       3.70111      3.96278     12.64857         0.358695      0.121810     -0.973551
Pb       3.82661     15.48211     12.54665         0.336157      0.072362     -0.993243
Pb      15.57657      3.92782     12.56540         0.213040     -0.239611     -0.835698
Pb       0.14503     15.57668     12.47336        -0.528189      0.167818     -0.344349
Pb       3.74685      7.87366      3.99819         0.371846      0.567837      0.646550
Pb       3.88656      7.65634     16.58150        -0.157082      0.493408     -0.409389
Pb       0.04820      7.87463      4.07039         0.219649      0.343427      0.133081
Pb      15.52573      7.74959     16.60307         0.278420      0.244149     -0.172495
Pb       3.89347      7.76686      8.34273         0.288783     -0.111009     -0.134481
Pb      15.37277      7.73809      8.52513         0.305917      0.013371     -0.259167
Pb       3.92950      7.84614     12.45774        -0.311003     -0.260108     -0.157196
Pb      15.41308      7.72754     12.50502         0.366732      0.103511     -0.194235
Pb       3.86222     11.70501      4.08055        -0.160498     -0.072056      0.142676
Pb       3.90601     11.65882     16.54210        -0.019198     -0.002796      0.573214
Pb      15.56309     11.76910      4.11696         0.653627     -0.441836     -0.237786
Pb      15.57259     11.80103      0.02701         0.097823     -0.344747     -0.512777
Pb       3.84536     11.87886      8.31955         0.086221     -0.275708     -0.427417
Pb      15.57219     11.65179      8.12681         0.319975      0.336203      0.351020
Pb       3.88340     11.69393     12.30795         0.058987     -0.122606      0.318882
Pb       0.05015     11.56572     12.41805        -0.035473      0.223521      0.038275
Pb       7.75941      3.69044      4.14344        -0.158139      0.233155     -0.410250
Pb       7.77305      3.87706     16.54702        -0.148176     -0.165032      0.250656
Pb       7.77586     15.48885      4.14264        -0.316690      0.524137      0.191427
Pb       7.81057      0.07672     16.59262         0.036797     -0.462570     -0.044132
Pb       7.71353      3.81021      8.53004        -0.517202      0.224447     -0.854109
Pb       7.85309     15.57553      8.34260        -0.608967      0.168587     -0.911176
Pb       7.78053      3.68697     12.47890         0.302088      0.505922      0.876124
Pb       7.84440     15.58847     12.50771        -0.320447     -0.330115      0.125799
Pb       7.87403      7.80886      4.08828        -0.503410      0.058960     -0.397102
Pb       7.70934      7.81844     16.54183        -0.310685      0.127774      0.309793
Pb       7.93351      7.86681      8.21097        -0.879863     -0.319633      0.780498
Pb       7.92659      7.61636     12.40606        -0.594379      0.379037      0.327644
Pb       7.85302     11.72745      4.05567        -0.426965     -0.631085      0.412968
Pb       7.77041     11.73830     16.48343         0.247156      0.027439      0.506862
Pb       7.71858     11.71153      8.24861         0.006855     -0.237394     -0.128199
Pb       7.82407     11.57377     12.42040         0.359807     -0.166339      0.077662
Pb      11.76679      3.84163      4.30339         0.038455     -0.236524     -0.236753
Pb      11.73540      4.09073      0.21812         0.006661     -0.739883     -0.155200
Pb      11.46929     15.60398      4.17032         0.980902      0.086634     -0.159905
Pb      11.64668     15.59795     16.50919         0.480770     -0.431006      0.493495
Pb      11.64945      4.10122      8.41600        -0.076598     -0.189842     -0.445730
Pb      11.55987      0.06057      8.33375         0.655131     -0.035949     -0.165086
Pb      11.81725      3.74984     12.46434        -0.627955      0.206105      0.493075
Pb      11.57861     15.49218     12.36558         0.698751      0.150680      0.160611
Pb      11.68868      7.63343      4.00647        -0.014514      0.290261      0.690799
Pb      11.67696      7.82812      0.02180         0.502398     -0.048394     -0.061796
Pb      11.65801      7.81706      8.25296        -0.010604      0.439361      0.057017
Pb      11.47635      7.94805     12.50043         0.710106     -0.058109     -0.047548
Pb      11.79507     11.46194      4.26803        -0.140038      0.359908     -0.294143
Pb      11.84926     11.67993     16.58888        -0.631349      0.073937     -0.167875
Pb      11.76972     11.86326      8.41560        -0.251039     -0.866745     -0.370463
Pb      11.71551     11.73916     12.38745        -0.265963     -0.304827     -0.192361
Ti       1.91360      2.03864      2.11654         0.110442     -1.366842      1.344306
Ti       1.98753      1.93003     14.55763        -0.509214      0.374433     -0.228086
Ti       1.89974     13.68313      2.16286         0.431106      0.826354      0.300602
Ti       1.86732     13.62738     14.65069         0.188915     -1.043049      0.131192
Ti      13.54187      1.89997      2.19827         0.665529     -0.091853      0.139606
Ti      13.71060      1.88084     14.64598        -0.665353     -0.495501     -0.861582
Ti      13.55923     13.59881      2.25916        -0.308647      0.918313     -0.182148
Ti      13.65873     13.58760     14.59451        -0.159202      0.332494      0.800074
Ti       1.89506      1.94700      6.33153         0.872947     -0.520958      0.171727
Ti       1.91498     13.62513      6.26986         0.506664      0.435993      0.192907
Ti      13.61953      1.90634      6.54802         0.035809     -0.356012     -0.522219
Ti      13.57959     13.59101      6.38854         0.200949      1.073623      0.538202
Ti       1.93206      1.90528     10.53884         0.061030      0.329256     -0.221260
Ti       1.88212     13.52655     10.45127         1.181305      1.608577     -0.920697
Ti      13.64543      1.94245     10.56863         0.624045     -0.573801     -0.558127
Ti      13.74405     13.71765     10.52676        -0.500600      0.012160      0.266890
Ti       2.01925      5.77436      2.28362        -0.985679      0.490194     -0.749755
Ti       1.82171      5.88534     14.69835         1.511490      0.300963     -0.198500
Ti      13.72883      5.78886      2.28527        -0.385360     -0.976637     -0.901693
Ti      13.61328      5.69506     14.68977         0.036176      0.578642     -0.505661
Ti       1.83895      5.85824      6.41142         1.351249     -0.460366     -0.098379
Ti      13.58848      5.85886      6.45813        -0.416283     -0.372632     -0.449034
Ti       1.95961      5.85350     10.51075         0.285069     -0.429656      0.495571
Ti      13.57080      5.82369     10.65223         0.345156      0.543371     -0.692810
Ti       1.96765      9.81346      2.05108        -0.573767     -0.001902      1.292777
Ti       1.95152      9.76770     14.62768        -0.158389     -0.034441      0.088456
Ti      13.62437      9.65265      2.21935         1.046151      0.455765     -0.166281
Ti      13.63887      9.65435     14.67909        -0.004400      0.458588      1.019262
Ti       1.98341      9.67677      6.38621         0.434241      0.603149     -0.419936
Ti      13.76775      9.67398      6.32357        -1.405619      0.036377     -0.175770
Ti       2.00050      9.71416     10.48784         0.384909     -0.740804     -0.445883
Ti      13.70873      9.72713     10.48895        -0.966489     -0.581102     -0.368351
Ti       5.80828      1.91786      2.09735        -0.240098      1.022720     -0.287094
Ti       5.85655      1.85861     14.72915         0.143378      0.479340     -1.088848
Ti       5.79438     13.69194      2.21674        -0.506512     -0.513602     -0.333270
Ti       5.82423     13.62585     14.66261        -0.077024      0.153755      0.277055
Ti       5.90662      1.99991      6.34832        -0.585863     -1.117251     -0.101063
Ti       5.80010     13.58933      6.24858        -0.064122      1.568366      0.454847
Ti       5.79698      1.87063     10.70979        -0.870272      0.268302     -1.226125
Ti       5.91667     13.61796     10.50638        -0.992047      0.880413     -1.051160
Ti       5.79378      5.92929      2.16448         0.663485     -1.180087     -0.211514
Ti       5.87529      5.82702     14.60909        -0.706861      0.258523      0.850829
Ti       5.81206      5.82130      6.32612        -0.911041      0.039270      0.865278
Ti       5.87014      5.69215     10.67379        -0.641205      0.674073      0.355988
Ti       5.87112      9.81845      2.15620        -0.830643      0.453887     -0.360438
Ti       5.75097      9.78335     14.62380         0.352666     -0.494438      0.818138
Ti       5.79528      9.72613      6.35920        -0.292079     -0.240067     -0.554912
Ti       5.96278      9.64239     10.58765        -0.987065     -0.055116     -1.908471
Ti       9.69603      1.87295      2.13179         0.221263      0.592316     -0.159854
Ti       9.91494      1.93958     14.70794        -0.202632      0.223186      1.068439
Ti       9.70824     13.55068      2.26587         1.007249      0.510451     -0.922515
Ti       9.76028     13.59115     14.64264         0.189804     -0.392933      0.418517
Ti       9.75882      2.03004      6.38707        -0.924412      0.004921     -0.073330
Ti       9.75131     13.66894      6.28679        -0.911279     -0.311543      1.703769
Ti       9.76335      1.91905     10.56619         0.301420      0.256561     -0.199301
Ti       9.67579     13.61306     10.41374         0.818158     -0.414922      0.829558
Ti       9.69100      5.72769      2.21305         0.210367      0.083857     -0.064700
Ti       9.77415      5.78593     14.81253         0.022569     -0.481502     -0.793504
Ti       9.57190      5.88068      6.27419         0.465044     -0.868483      0.746059
Ti       9.76730      5.79389     10.65951        -0.292083     -0.102975     -0.847734
Ti       9.77184      9.71820      2.21091        -0.382489      0.689070     -0.561784
Ti       9.66668      9.67353     14.84600         0.681649      2.013818     -1.385516
Ti       9.74037      9.75243      6.35206         1.165198      0.639736      0.833701
Ti       9.77843      9.73550     10.49070         0.530790      0.257929      0.053263
O       1.80671      1.96555      0.36878         0.172071      0.032801     -0.888826
O       1.96279      1.94582     12.70971        -0.030687     -0.003628      2.015811
O       1.64817     13.82310      0.37516         0.182082     -0.804567     -0.211734
O       1.83292     13.50560     12.86075         0.551603      0.397629      0.020967
O      13.64747      2.02792      0.41113        -0.038639     -0.226744      0.032576
O      13.55450      1.87270     12.82645         0.136415     -0.019548      0.988720
O      13.62366     13.77893      0.46787         0.385613     -1.010852      0.602772
O      13.66541     13.59325     12.83438        -0.153741     -0.225154     -0.757360
O       1.91549      1.84735      4.55477        -0.081313      0.426709      0.000491
O       2.00511     13.57476      4.48679        -0.171268      0.355068      0.178469
O      13.60581      1.92165      4.77578        -0.056169      0.178394     -0.389096
O      13.41022     13.67064      4.67060         0.513521     -0.206375     -1.265516
O       2.03359      1.82431      8.74773        -0.256696      0.305114      0.373379
O       1.97156     13.54738      8.62346        -0.248247      0.090505      0.684847
O      13.71530      1.90588      8.76201        -0.246591      0.376323      0.357653
O      13.74700     13.46525      8.78199        -0.104135     -0.077166     -0.810243
O       1.96544      5.82351      0.51644         0.159781      0.302213     -1.158965
O       1.96605      5.85070     12.92180        -0.682592     -0.180467      0.020640
O      13.56002      5.76936      0.43569         0.282867     -0.221019      0.266685
O      13.75748      5.75532     12.87677        -0.295724      0.178511      0.171247
O       1.83024      5.58560      4.62977        -0.000324      1.204942      0.038384
O      13.61203      5.72921      4.67122         0.172550      0.312432      0.102913
O       2.05408      5.79559      8.74548        -0.330679      0.445108     -0.045283
O      13.61635      5.91920      8.78853        -0.297909     -0.114925      0.419143
O       2.14859      9.75965      0.33901        -0.827274     -0.011521     -1.126534
O       2.13276      9.74388     12.82764        -1.104628      0.432678      0.260117
O      13.52291      9.61999      0.43803         0.334495     -0.080739     -0.198129
O      13.61454      9.59500     12.93511         0.214514      0.469999     -0.614788
O       1.83758      9.71199      4.59101        -0.031435     -0.022503     -0.241354
O      13.81996      9.61225      4.46003        -0.458570      0.413720      1.031574
O       2.10584      9.69418      8.67285        -0.314556      0.212973      0.514592
O      13.60600      9.74653      8.65909         0.542981     -0.285836      0.578550
O       5.73757      1.90510      0.27523         0.213393      0.082380      0.276767
O       5.93546      1.76447     12.87810        -0.288655      0.143074      1.128698
O       5.89928     13.60363      0.46923         0.317595      0.232769     -0.765681
O       5.68697     13.75404     12.89634         0.323960     -0.387793      0.064087
O       5.93100      2.11090      4.52561        -0.181943     -0.178151     -0.095116
O       5.62337     13.63838      4.48050         0.706608     -0.285946     -0.955909
O       5.94394      2.07121      8.81361         0.058151     -0.659914      1.278593
O       5.83748     13.72330      8.65649         0.256525     -0.013398      1.078799
O       5.69396      5.85939      0.35189         0.109732      0.110076      0.586489
O       5.94512      5.82049     12.85554         0.010308      0.368070      0.916049
O       5.71293      5.68426      4.55822         0.598639      0.350333     -0.375223
O       5.74687      5.69937      8.95503         0.232130     -0.232875     -1.553026
O       5.79725      9.85411      0.35750         0.201121     -0.256515      0.449804
O       5.91767      9.84918     12.86215         0.223220     -0.043913     -0.916968
O       5.73186      9.77213      4.57151         0.720682     -0.063453     -0.358813
O       5.84077      9.69806      8.75412         0.121987      0.011720      0.251859
O       9.87051      2.02778      0.34209        -0.583436     -0.579719      0.565198
O       9.99656      1.77163     12.95925        -0.712405      0.047023     -1.017913
O       9.77072     13.63575      0.51507        -0.153348      0.076790     -0.843518
O       9.84884     13.76670     12.86623        -0.106072     -0.546637     -0.379642
O       9.61081      1.95212      4.59182         0.146075     -0.195455      0.044627
O       9.73663     13.83529      4.53291         0.229383     -0.672312     -0.590911
O       9.71805      2.04752      8.75230        -0.183136     -0.166694      0.749962
O       9.58759     13.62153      8.66455         0.291187      0.075659     -0.506484
O       9.93431      5.75667      0.40839        -0.601597      0.255050     -0.003492
O       9.82053      5.94347     13.03373        -0.457660      0.292958     -0.154911
O       9.47401      5.94252      4.49036         0.492967      0.134601     -0.077837
O       9.72864      5.76425      8.87622         0.153729     -0.117533      0.061958
O       9.65152      9.80515      0.43099         0.703784     -0.196171     -0.023195
O       9.74704      9.77136     13.00125        -0.046923     -0.442344     -0.385333
O       9.74697      9.82770      4.59694        -0.230776     -0.444602     -1.469918
O       9.90934      9.74182      8.76814        -0.482779     -0.248868     -1.416470
O       3.86559      1.85010      2.40781        -0.331923      0.397402      0.094202
O       3.86582      1.81799     14.81126        -0.283304      0.499685      0.246945
O       3.83175     13.77418      2.34068         0.092689      0.056608      0.160286
O       3.86900     13.66265     15.25675         0.337682     -0.117104     -1.609529
O      15.47455      2.08881      2.50494         0.529713     -0.202423     -0.026134
O       0.01594      2.02351     14.83036         0.321339     -0.780801      0.202928
O       0.01320     13.66749      2.73970        -1.431063     -0.686056     -0.670324
O      15.57778     13.50479     14.85258         0.092555      0.249260      0.516987
O       3.99333      1.94187      6.62285        -1.110421      0.271842      0.220768
O       3.91680     13.57608      6.58233        -0.515574     -0.116360      0.452461
O       0.05050      1.96240      6.76283        -0.740995     -0.363845     -0.110223
O      15.50363     13.69822      6.53993         0.902264     -0.629312      0.099130
O       3.93299      2.05960     10.84392        -0.502128     -0.706312      0.095111
O       3.78343     13.67790     10.83616         0.897001     -0.317023     -0.124956
O      15.50340      1.93804     10.99287         0.853838      0.298053     -0.509666
O       0.07086     13.64979     10.79870        -1.614656     -0.246693      0.364306
O       3.88439      5.66298      2.53477         0.463809      0.925210      0.151162
O       3.81980      5.94241     14.88330         0.883612     -0.454895      0.386317
O      15.59288      5.60200      2.41625        -0.619525      0.768918      0.472014
O      15.55884      5.76066     14.97773         0.147420      0.342704      0.403567
O       3.81005      5.71445      6.70687         0.538171      0.091990     -0.227293
O      15.54598      5.97544      6.93481         0.268076     -0.521541     -0.886881
O       3.96149      5.86121     11.02738        -0.883708     -0.514934     -0.131115
O      15.60083      5.81156     10.80298         0.199412      0.610044      0.101862
O       3.77912      9.88745      2.41117         1.289255     -1.221256      0.795761
O       3.86501      9.71351     14.86067         1.044389      0.243735      0.265855
O      15.60269      9.70590      2.38725        -0.513087     -0.022938      0.007032
O       0.02395      9.78396     15.03119        -0.376623     -0.159481     -0.102835
O       3.92732      9.74738      6.44927        -0.308295      0.529180      0.968731
O       0.04105      9.65498      6.71144        -0.858238      0.170969      0.007765
O       3.96361      9.76299     10.89743         0.042156      0.439063     -0.308018
O       0.02876      9.57266     10.85479         0.230130      0.206953     -0.182271
O       7.72539      1.92241      2.37258         1.190563     -0.061772      0.012088
O       7.71726      2.02108     14.98305         0.680875     -0.578907      0.157295
O       7.80486     13.48189      2.51180        -0.753622      0.789530      0.414801
O       7.86697     13.55222     14.86862        -1.452909      0.643944      0.206099
O       7.75221      1.85588      6.70385         1.232434      0.305043      0.267033
O       7.82920     13.75319      6.41564        -0.197734     -0.132061      0.570697
O       7.85091      1.76163     11.03554         0.730207      0.773700     -0.797309
O       7.81971     13.73405     10.74543        -0.344495     -0.202696      0.494828
O       7.72325      5.92515      2.40947         0.323732      0.015876     -0.042241
O       7.80138      5.82433     15.06713        -0.225231      0.403317     -0.080236
O       7.70072      5.84647      6.83408         0.566616      0.560149     -0.686326
O       7.82499      5.73087     10.94564         0.382896      0.273581      0.151160
O       7.77565      9.85970      2.42510        -0.273138     -0.448429      0.534971
O       7.80385      9.76040     14.99477        -0.839966      0.097434      0.172120
O       7.84182      9.66267      6.65080        -0.906022     -0.302154      0.172973
O       7.88926      9.77038     10.68244        -1.037366      0.059043      0.880693
O      11.64141      1.88992      2.59328        -0.307726      0.129707     -0.109296
O      11.77465      1.96289     14.99894        -0.275728     -0.402412      0.039993
O      11.68634     13.61553      2.58791         0.153996      0.187653     -0.084464
O      11.69735     13.57203     14.98109         0.433190      0.368959     -0.046072
O      11.63654      2.07492      6.66903        -0.051837     -0.489314      0.417080
O      11.63437     13.67928      6.75641         0.142279     -0.284808      0.274580
O      11.69057      1.86652     10.81232        -0.505572      0.189983     -0.060487
O      11.74568     13.54710     10.65447        -0.076168     -0.167061      0.357454
O      11.68262      5.81835      2.55774        -1.132960     -0.096326      0.131668
O      11.72565      5.71570     14.96320        -0.095448      0.421399      0.318113
O      11.61731      5.83779      6.70169         0.419329     -0.110570     -0.129891
O      11.67933      5.77729     10.89773         0.106452      0.299370      0.107039
O      11.72969      9.69806      2.58167        -0.763034     -0.237989     -0.035247
O      11.69415      9.78647     15.02675         0.477491     -0.514447      0.190956
O      11.69411      9.66953      6.62283         0.280253      0.272749     -0.341048
O      11.71079      9.71146     10.79079         0.335415      0.074458      0.694257
O       1.92791      3.93637      2.45314         0.079178     -1.967100      0.276331
O       1.91866      3.88254     15.03149         0.453242     -0.287010     -0.659119
O       1.76853      0.03049      2.38342        -0.024836      0.449498      0.490992
O       1.95814     15.53100     14.84860        -0.488773      1.265740     -0.151636
O      13.42729      3.88099      2.70811         0.584257     -0.303275     -0.701537
O      13.70622      3.78520     14.83501        -0.103279      0.922904      0.425398
O      13.65421     15.58780      2.52922        -0.033195      0.225199      0.077288
O      13.73416     15.49266     15.03850        -0.323225      0.838174     -0.558957
O       1.90710      3.84653      6.67165        -0.330615      0.326571      0.271906
O       2.03799     15.54263      6.69106        -0.389627      0.266604     -0.232408
O      13.58960      3.86164      6.86777         0.424741      1.084465     -0.302286
O      13.66941     15.57089      6.85803        -0.717835      0.237781     -0.181405
O       1.91075      3.90742     10.82712         0.193660      0.144774      0.216603
O       1.83420     15.59160     10.83785         0.463530      0.135266      0.090051
O      13.54282      3.90586     10.87482         0.438272     -0.395410     -0.238657
O      13.68715     15.59034     10.69198        -0.083638     -0.888841      0.325880
O       1.84992      7.79501      2.53316         0.534945     -0.422615     -0.115464
O       1.94426      7.85646     14.97965        -0.679136     -1.031762      0.196258
O      13.57576      7.65100      2.48800         0.532774      0.896513      0.258648
O      13.71033      7.72052     14.97679        -0.260339      0.037683      0.201969
O       2.10791      7.82120      6.58543        -0.535011     -1.397552      0.073097
O      13.60379      7.81484      6.65460         0.245190     -0.663167      0.208824
O       2.12753      7.85484     10.80470        -0.466957     -1.166148     -0.113128
O      13.60197      7.76389     10.94783         0.228022     -0.285166     -0.267483
O       1.96325     11.75175      2.40321        -0.753013     -0.189663     -0.071524
O       2.04914     11.71314     14.93650        -0.419921     -0.168090      0.325952
O      13.57661     11.61273      2.44037         0.419322      0.598414      0.361027
O      13.71306     11.65228     15.05810        -0.423136      0.207199     -0.095852
O       1.94443     11.73020      6.60800        -0.361048     -0.586793      0.243546
O      13.54070     11.63750      6.55452         0.587931     -0.069556      0.217560
O       1.89986     11.67793     10.69027         0.004064     -0.861688      0.531652
O      13.79169     11.50736     10.81926        -0.242748      1.658896      0.461549
O       5.87313      3.82496      2.34885        -0.305366      0.655205      0.322800
O       5.74529      3.92796     14.98109         0.097481     -0.178451     -0.269887
O       5.89646      0.02159      2.51368         0.017728     -0.621115      0.109838
O       5.82063     15.55196     15.09597         0.440397      0.007918     -0.485595
O       5.90099      3.87329      6.73803         0.001222      0.706465     -0.135117
O       5.75992     15.59096      6.41314         0.289522      0.011219      0.770689
O       5.93289      3.81836     11.13629        -0.059069     -0.345960     -0.756689
O       5.81594     15.56752     10.92323        -0.018266      0.058616     -0.289471
O       5.71418      7.82226      2.41303         0.019920      0.051530      0.222798
O       5.85997      7.88756     15.01282         0.087772     -1.049536     -0.266693
O       5.66797      7.72316      6.62102         0.789171      0.249805      0.085572
O       5.88336      7.78973     10.79817         0.391938      0.055823      0.614961
O       5.64152     11.70742      2.43032         0.737131     -0.033112      0.486775
O       5.81628     11.72019     14.87577         0.005721      0.148685      0.293772
O       5.93608     11.75089      6.67842         0.015551     -1.207289     -0.104142
O       5.94164     11.77102     10.64961        -0.137817     -0.311854      0.950965
O       9.68701      3.85427      2.41534        -0.010085      0.588281      0.363161
O       9.66930      3.86219     14.96046         0.285000      0.363171      0.014867
O       9.68920      0.01329      2.50363        -0.107099     -0.326615     -0.070284
O       9.69660      0.01396     15.07422         0.193010     -0.156416     -0.156298
O       9.64525      3.99986      6.49183        -0.005062     -0.797864      0.514294
O       9.79547      0.02940      6.75522        -0.076611      0.014483     -0.202665
O       9.76989      3.88336     11.04658        -0.117379     -1.351142     -0.527595
O       9.81703     15.51416     10.75511        -0.028646      0.821159     -0.147163
O       9.69767      7.82569      2.47207         0.088357     -0.228512      0.202016
O       9.74613      7.86143     15.13252         0.138256     -1.874536     -0.007861
O       9.80291      7.76442      6.75482        -0.733350     -0.140392     -0.448455
O       9.69342      7.77909     10.80486         0.278041     -0.262370      0.580746
O       9.75217     11.67512      2.50043         0.326926     -0.432577      0.712560
O       9.74516     11.70190     14.91728         0.086428      0.307773      0.406204
O       9.62696     11.64165      6.70766         0.587740      1.101159     -0.489695
O       9.75911     11.65349     10.78126        -0.061603      1.081215      0.470075
