  # total energy = -7882.24942576 
CRSYTAL
PRIMVEC
    15.6080000000000005    0.0000000000000000    0.0000000000000000
     0.0000000000000000   15.6080000000000005    0.0000000000000000
     0.0000000000000000    0.0000000000000000   16.6239999999999988
PRESSURE
-0.16743 -0.678252 0.162638 -0.05536 -0.038098 -0.012849
PRIMCOORD
320 1
Pb       3.80551      3.80954      4.07163         0.035332     -0.011299      0.647993
Pb       3.76164      3.76375      0.03197         0.134769     -0.072120     -0.353715
Pb       3.91135     15.47574      4.26352         0.089377     -0.032421     -0.325086
Pb       3.94012     15.54968      0.09175        -0.161909      0.443740     -0.549437
Pb      15.51232      3.83283      4.15098        -0.030543      0.443741     -0.066810
Pb      15.55158      3.93190     16.56662         0.178901      0.042125     -0.219529
Pb       0.12442      0.00789      4.21866        -0.502327     -0.143967      0.303379
Pb       0.03236     15.54249      0.01059        -0.034493      0.303726     -0.237037
Pb       3.99781      4.02196      8.33836        -0.529375     -0.278068      0.404128
Pb       3.89493      0.12715      8.49843         0.399192     -0.371996     -0.289867
Pb       0.07155      3.92066      8.22245         0.006849      0.204250      0.008847
Pb       0.07590      0.08174      8.30027        -0.381131     -0.299182      0.174010
Pb       3.90696      3.98292     12.34759        -0.681410     -0.404494      0.867013
Pb       3.87655      0.00053     12.31774        -0.231309      0.137151      0.466690
Pb      15.52064      3.73536     12.22830         0.177897      0.546922      0.699238
Pb      15.45358     15.59933     12.37032         0.338445     -0.204099     -0.011194
Pb       3.87147      7.71782      4.23545        -0.379542      0.036770     -0.583033
Pb       3.80419      7.81928     16.60725         0.013531     -0.437954     -0.030704
Pb      15.55864      7.79414      4.07360        -0.377070      0.196056     -0.323061
Pb       0.02150      7.79654      0.01838        -0.234319      0.091146     -0.011002
Pb       4.03064      7.83793      8.23497        -0.479430      0.384535      0.282972
Pb       0.11141      7.85312      8.11032        -0.729629     -0.025113      0.797913
Pb       3.75558      7.85725     12.52093         0.495045     -0.406793      0.195781
Pb       0.00939      7.75785     12.39856        -0.518537     -0.230640      0.401192
Pb       3.98059     11.64633      4.25149         0.000480      0.444241     -0.274666
Pb       3.89920     11.65512     16.53562         0.050763     -0.108145      0.483519
Pb       0.06306     11.78072      4.20267        -0.315144     -0.346244     -0.016896
Pb       0.05520     11.72634      0.05263        -0.190463     -0.534217     -0.210276
Pb       3.89391     11.53429      8.25450        -0.258983      0.433025      0.513917
Pb      15.46804     11.72170      8.35583         0.439115      0.098130     -0.575007
Pb       3.77699     11.80050     12.58620        -0.254757     -0.083318     -0.635255
Pb      15.44286     11.60365     12.38330         0.184114      0.342528      0.398486
Pb       7.77150      4.01448      4.10674         0.330289     -0.439829     -0.150002
Pb       7.64610      3.67422      0.05494         0.277842      0.401329      0.033544
Pb       7.75402      0.01945      4.09641         0.250362     -0.091372      0.088415
Pb       7.79687     15.39492     16.60854        -0.292361      0.528110      0.038711
Pb       7.79327      3.98109      8.17736         0.376834     -0.310061      0.545288
Pb       7.76626     15.53729      8.43911        -0.265616      0.007225     -0.411365
Pb       7.75450      4.14688     12.45125         0.145271     -1.151164      0.318218
Pb       7.84917      0.13323     12.47734         0.061772     -0.778128      0.439419
Pb       7.61687      7.78533      3.98556         1.089652     -0.352779      1.020963
Pb       7.92480      7.77829     16.55980        -0.492577     -0.274404      0.892540
Pb       7.77238      7.80131      8.43883         0.141210      0.260878     -0.129705
Pb       7.77440      7.86575     12.57152         0.027755     -0.013994     -0.218988
Pb       7.72783     11.73173      4.09335        -0.136752     -0.112257     -0.109103
Pb       7.84839     11.50160      0.00528         0.027317      0.449862      0.180145
Pb       7.61916     11.62049      8.38489         0.781691     -0.031043      0.184734
Pb       7.70367     11.68452     12.54548         0.498748      0.044773     -0.607819
Pb      11.60434      4.03590      4.11386         0.555705     -0.186421      0.067899
Pb      11.69983      3.73024     16.39509         0.068409      0.498009      0.948579
Pb      11.89973      0.22985      4.21033        -0.354056     -0.126278     -0.081794
Pb      11.72817     15.55101      0.04640         0.212131      0.589588     -0.458038
Pb      11.69183      3.73002      8.15280        -0.163804      0.467593     -0.217254
Pb      11.62961     15.40440      8.22615         0.216813      0.174136     -0.115787
Pb      11.57986      3.91037     12.40478         0.571295     -0.698519      0.205247
Pb      11.88756     15.56827     12.48706        -0.478544      0.040838      0.123309
Pb      11.70193      7.82572      4.05417         0.322236      0.092480      0.225396
Pb      11.64954      7.72559     16.55775         0.379812      0.150534      0.503609
Pb      11.72235      7.82209      8.10991        -0.115269     -0.405537      0.052869
Pb      11.85274      7.55999     12.43295        -0.436223      0.837240      0.363715
Pb      11.51593     12.01086      4.19891         0.674811     -1.253046      0.468420
Pb      11.82376     11.79100     16.61858        -0.410810     -0.353860     -0.011991
Pb      11.63900     11.54055      8.11768        -0.059565      0.944921      1.038009
Pb      11.58225     11.57485     12.42279         0.269764      0.434398     -0.248271
Ti       1.90721      1.78561      2.28277         0.487626      1.164301     -0.775250
Ti       1.95481      1.86287     14.63872         0.402873      0.188826     -0.644828
Ti       1.92553     13.59203      2.27371         1.067527     -0.354665      0.930204
Ti       1.96762     13.59684     14.66898        -0.897089      1.265589     -1.345686
Ti      13.69388      1.96582      2.14830        -0.438633     -0.002513      0.325459
Ti      13.77872      1.94697     14.71746        -1.196724     -0.658770     -0.348842
Ti      13.61062     13.64672      2.30773         1.014706     -0.121296      0.119639
Ti      13.69115     13.68110     14.75520        -0.303749      0.457719     -0.747790
Ti       2.04695      2.01004      6.45823        -0.864327      0.396726     -0.804702
Ti       2.04426     13.70922      6.48877        -0.968244     -1.066436      0.097958
Ti      13.71815      1.94817      6.39331         0.269776     -0.115238     -0.171911
Ti      13.69072     13.64009      6.31865        -0.113693     -0.129984      1.087445
Ti       1.91836      2.02004     10.44511         0.318273     -0.124935      1.244843
Ti       1.90362     13.70936     10.53950        -0.202117     -0.717381     -1.059614
Ti      13.54989      1.91078     10.37509         0.334859      0.021588      0.671840
Ti      13.59579     13.57827     10.45422        -0.226125      0.276893      0.778874
Ti       1.91667      5.78864      2.27227         0.120675      0.464044     -0.121872
Ti       1.92070      5.78375     14.69751        -0.726980     -0.276749     -0.312634
Ti      13.65711      5.87753      2.10832         0.429792      0.268493      1.596788
Ti      13.62995      5.91597     14.62375        -0.218885     -0.398207      0.059652
Ti       1.94621      5.96811      6.30798        -0.383558     -1.565735      0.369863
Ti      13.69945      5.84147      6.42050        -0.671277      0.130119     -0.777204
Ti       1.90574      5.91028     10.49190         0.260241     -0.434139      0.685168
Ti      13.63862      5.77768     10.39958         0.866411     -0.024130     -0.855586
Ti       2.08468      9.78438      2.27417        -1.614912     -0.450324      0.040600
Ti       1.89655      9.73886     14.62556        -0.462238      0.329866      0.323260
Ti      13.65536      9.81756      2.20350         0.446652     -0.427859      0.570198
Ti      13.55800      9.82627     14.68253         1.620363     -0.490990     -0.289587
Ti       1.85981      9.84970      6.31369         0.638341     -0.028683      0.109586
Ti      13.61111      9.75936      6.28652         0.396274     -0.340570     -0.450260
Ti       1.92640      9.77510     10.57352        -0.235808      0.100169     -0.587124
Ti      13.60594      9.62538     10.43140         0.200933      0.351423      0.247888
Ti       5.85097      1.88348      2.30251        -0.194576     -0.213695     -1.095767
Ti       5.77724      1.91492     14.65352        -0.497044     -0.109478     -0.232820
Ti       5.87381     13.57737      2.18186        -0.714177     -0.360056      0.021556
Ti       5.81009     13.60178     14.69152         0.518447      1.021797     -0.849037
Ti       5.87549      1.98204      6.44228         0.372546     -1.107625     -0.266360
Ti       5.81243     13.60628      6.54184         0.567465      0.497604     -0.323386
Ti       5.86860      1.89555     10.60526        -0.378421      0.764067     -0.423832
Ti       5.82071     13.52179     10.61886         0.023701      0.752777     -1.396133
Ti       5.81830      5.80424      2.26459        -0.346259     -0.410148     -0.877125
Ti       5.72058      5.82563     14.74513        -0.148329     -0.231831     -0.653036
Ti       5.76205      5.80526      6.35887         0.953695      1.088488     -1.376298
Ti       5.85212      5.84213     10.65838        -0.347217      0.210829     -0.162897
Ti       5.80606      9.62178      2.17805         0.367325      1.258048     -0.134462
Ti       5.79736      9.65959     14.72555        -0.043136     -0.088435     -0.215436
Ti       5.86093      9.72138      6.28403         0.262824     -0.117989      1.417490
Ti       5.77724      9.67765     10.64071         0.638134     -0.008361     -0.115095
Ti       9.82491      1.92212      2.17163        -0.533730      0.100951      0.629800
Ti       9.68242      1.88130     14.74226         0.419435     -0.129934      0.054555
Ti       9.77153     13.69288      2.18539        -1.529710      0.447519     -0.148253
Ti       9.74186     13.66663     14.68022         0.150613     -0.327837     -0.434767
Ti       9.72209      1.88875      6.25950         0.026796      0.528193      0.477404
Ti       9.62361     13.65267      6.34770         0.562177     -0.667915      1.413670
Ti       9.72258      1.87594     10.48612         0.655125      0.051943      0.372204
Ti       9.72582     13.65005     10.52157        -0.017642     -0.982724      1.388620
Ti       9.82352      5.84621      2.21339        -0.946332      0.365156     -0.093066
Ti       9.62682      5.74717     14.71253         0.868806     -0.144992      0.984767
Ti       9.69162      5.82499      6.29508         1.015977      0.092969      0.245733
Ti       9.83281      5.81035     10.48211        -1.451756      0.155562     -0.244097
Ti       9.74855      9.74538      2.30561         0.307092     -0.409566     -0.940191
Ti       9.77196      9.70999     14.77285         0.067560      0.535466     -0.785061
Ti       9.66433      9.70087      6.27485        -0.148415      0.579558      0.388275
Ti       9.75547      9.61424     10.64433        -0.586641      0.483639     -0.803609
O       2.09203      1.80228      0.47876        -0.455136      0.263702      1.033559
O       1.96243      2.05162     12.83959        -0.240230     -0.815878      0.160784
O       2.04019     13.48648      0.53253        -0.277374      0.151832     -1.058022
O       1.85425     13.66680     12.83235         0.307911     -0.141932      0.970217
O      13.59468      1.81698      0.38702         0.494109      0.561725      0.147853
O      13.56910      1.88015     12.91800         0.762135      0.047534      0.364192
O      13.67883     13.59093      0.53101        -0.320647      0.186297     -0.539158
O      13.75342     13.80095     12.98219        -0.014868     -0.031241     -0.578311
O       1.93887      1.77204      4.65898        -0.104530      0.176001      0.116982
O       2.03263     13.73255      4.68832        -0.456869     -0.031721     -0.274607
O      13.78441      2.02973      4.57831        -0.549420     -0.472062      0.249884
O      13.71706     13.57729      4.56521        -0.594401      0.021129     -0.910866
O       1.89313      1.96538      8.68881         0.301104     -0.120842     -0.679528
O       1.83457     13.58591      8.71401         0.228122      0.127584      0.408561
O      13.65696      1.95224      8.62290        -0.341275     -0.153993     -0.555921
O      13.53019     13.62758      8.69393         0.188137     -0.089869      0.059104
O       1.92780      5.91221      0.46514        -0.114573     -0.401222      0.121109
O       1.78172      5.88249     12.93316         0.599678     -0.251243      0.394249
O      13.72075      5.96810      0.38470        -0.079652     -0.242757     -1.201300
O      13.43768      5.80514     12.80474         0.722354     -0.179636      0.840914
O       1.98008      5.89014      4.55744         0.075963     -0.056184     -0.370368
O      13.74038      5.86183      4.61889        -0.250748     -0.146965     -0.029706
O       1.84982      5.93315      8.75945         0.114799      0.261227     -1.076720
O      13.79282      5.86403      8.58609        -0.506586     -0.323750      1.493386
O       1.92906      9.89884      0.46057         0.454046     -0.117303      0.231705
O       2.07864      9.79877     12.84888        -0.329833     -0.208988      0.015501
O      13.71218      9.80843      0.43931        -0.142106      0.195829     -1.427702
O      13.63780      9.69334     12.92753        -0.466190      0.243580     -0.197193
O       1.98620      9.87189      4.53791        -0.225667     -0.618257      0.525898
O      13.68556      9.62383      4.50616        -0.249919      0.376684      0.392350
O       1.93307      9.70112      8.74726        -0.046029     -0.068032      0.616016
O      13.68497      9.71234      8.65137        -0.166184     -0.171383      0.725484
O       5.67102      1.83512      0.44345         0.466128      0.586272      1.684880
O       5.71597      1.89253     12.84108         0.155279     -0.381843      0.404758
O       5.85455     13.61130      0.39617        -0.126788      0.210514     -0.345649
O       5.87540     13.70086     12.85452        -0.163648     -0.690741      0.905041
O       5.98339      1.83490      4.68411        -0.395587      0.260262     -0.349850
O       5.96126     13.50633      4.74385        -0.145694      0.427059      0.212091
O       5.84004      2.09430      8.79164         0.165394     -0.483219      0.343159
O       5.73472     13.49654      8.76370         0.181759      0.140027      0.443110
O       5.71297      5.76803      0.49288         0.204047     -0.077262     -0.283944
O       5.55427      5.82269     12.91724         1.026936      0.051506      0.403276
O       5.80996      5.86586      4.56811        -0.131627      0.034268      0.425971
O       5.85917      5.62456      8.87794         0.137685      0.871565     -0.761670
O       5.89923      9.72387      0.40161        -0.510040     -0.337012     -0.291031
O       5.86150      9.54959     12.94567        -0.172751      0.842857     -0.415968
O       5.75960      9.76934      4.55678         0.229258     -0.259224     -0.826723
O       5.86864      9.64105      8.82367        -0.095492      0.142655      0.354760
O       9.78748      1.94723      0.40832        -0.072060     -0.239017     -0.542090
O       9.66132      1.88440     12.98780         0.181260      0.383166     -0.517013
O       9.76342     13.84093      0.42290         0.154834     -0.416072      0.263699
O       9.63240     13.60621     12.89694         0.229680     -0.254877      0.373431
O       9.80268      1.99457      4.51392         0.016996      0.169239     -0.401902
O       9.59046     13.33504      4.61689        -0.188714      0.795144     -0.945503
O       9.78813      1.84256      8.72757        -0.135155     -0.053979      0.021891
O       9.85051     13.70071      8.78967        -0.089104      0.527432     -1.148418
O       9.62674      5.92136      0.46780         0.560645     -0.045055     -0.533494
O       9.78042      5.60045     12.94918        -0.027484      0.414538     -0.097304
O       9.82917      5.75872      4.51630        -0.092554     -0.056859      0.069780
O       9.54507      5.87884      8.70500         0.652162      0.079795      0.383899
O       9.65341      9.62191      0.49604        -0.377576      0.146093     -0.455465
O       9.76653      9.71571     12.95584         0.068343      0.238978      0.686596
O       9.65303      9.87321      4.52900         0.264237      0.125985     -0.571308
O       9.55369      9.43411      8.85411         0.637841      0.430266      0.414106
O       3.85069      1.82672      2.69381         0.849927      0.121730     -0.365932
O       3.84120      1.87394     15.06194         0.816711     -0.112981     -0.222691
O       3.94241     13.64968      2.58612        -0.119631      0.624880      0.180439
O       3.85564     13.78169     14.82017         0.959960     -0.834183      0.473802
O      15.56226      1.91592      2.49145         0.651046     -0.074231      0.080052
O       0.04790      1.89181     15.02430        -0.585363     -0.077895      0.119439
O       0.01917     13.53555      2.60048         0.311665      0.006659     -0.279564
O      15.58153     13.68323     15.14585         1.060567     -0.424206     -0.142841
O       3.87996      1.95769      6.71716         1.140487     -0.514723      0.297448
O       3.90088     13.62015      6.64417         0.204717     -0.089648      0.461769
O       0.06830      2.01088      6.69721        -0.381338     -0.060333      0.122984
O      15.49377     13.42416      6.61794         1.236895      0.249218      0.303661
O       3.85773      1.94058     10.71943         0.391933     -0.383788      0.069162
O       3.82509     13.51498     10.75482        -0.158804      0.434758      0.808078
O      15.53832      1.90474     10.66091         0.509094      0.559508      0.453469
O      15.58474     13.62892     10.78878        -0.707785     -0.003400      0.042016
O       3.87156      5.69342      2.61769        -0.043931      0.413847     -0.184584
O       3.80441      5.79021     15.05770        -0.332615      0.470612      0.102533
O       0.03074      5.84897      2.53029        -0.180102     -0.143735     -0.095431
O      15.55807      5.83220     15.03958         0.238808      0.037860     -0.037426
O       3.88222      5.91216      6.68914         0.408437      0.438464      0.177861
O       0.02994      5.79889      6.58297         0.691647      0.213222      0.320293
O       3.85142      5.92660     10.74757         0.283815      0.111894      0.255313
O      15.54116      5.74343     10.86584        -0.027017      0.203999     -0.246549
O       3.92182      9.66996      2.61828         0.095251     -0.017151     -0.378663
O       3.87729      9.66207     14.97288        -0.198054      0.386063      0.391179
O      15.54224      9.71110      2.41861         1.318825      0.489653      0.611893
O       0.01512      9.99270     14.80630        -0.183884     -0.380166      0.696381
O       3.92831      9.75804      6.63525        -0.426957     -0.389961      0.233178
O      15.56423      9.79563      6.61118         0.528954     -0.164667      0.000209
O       3.88328      9.54414     10.83203         0.004454      0.486303     -0.143413
O      15.51855      9.71263     10.92402         0.405182     -0.138958     -0.490002
O       7.90666      2.07889      2.45030        -1.735212     -0.331487      0.167483
O       7.65735      2.00290     15.04418         0.654350     -0.132648     -0.085155
O       7.75644     13.73765      2.56299         0.342221     -0.481785     -0.246069
O       7.87242     13.60398     15.05753        -1.249281     -0.432876     -0.091449
O       7.81980      1.99968      6.69628        -0.686778     -0.070289      0.099653
O       7.77163     13.64436      6.98051         0.279494      0.033701     -0.657739
O       7.82744      1.93572     10.92580        -0.871195      0.022606     -0.520685
O       7.72344     13.58698     10.74049         0.512714     -0.169488      0.138387
O       7.80015      5.94784      2.49099        -0.396836     -1.015573      0.401061
O       7.74521      5.82760     14.93862        -0.306826     -0.036740     -0.132765
O       7.82279      5.74980      6.47970        -0.808745      0.130405      0.601126
O       7.79676      5.85673     10.91180        -0.112242     -0.517049      0.102300
O       7.66612      9.59239      2.59001         0.382320      0.771818     -0.477436
O       7.77356      9.65247     14.97526         0.685473      0.344237      0.099013
O       7.78680      9.82301      6.63559         0.305217     -0.439809      0.067767
O       7.78746      9.69629     10.94818         0.476840      0.386038      0.315200
O      11.74839      1.81369      2.51209         0.311491      0.408329      0.105502
O      11.72082      1.85957     15.03834        -0.720144      0.296510     -0.261677
O      11.62924     13.71686      2.60823         0.277854     -0.152853     -0.122332
O      11.71388     13.83834     15.00460        -0.374167     -0.723681      0.166309
O      11.72343      1.82465      6.62479         0.338171      0.389298     -0.120042
O      11.64348     13.59098      6.58045         0.138774      0.591873     -0.087882
O      11.71472      1.76659     10.84104        -1.267195      0.573543     -0.304243
O      11.72509     13.70204     10.90909        -0.122975     -0.003966     -0.099427
O      11.76117      5.99480      2.56188        -0.483115     -0.648770     -0.471372
O      11.68602      5.88823     14.99610        -0.035181     -0.525214      0.012530
O      11.70189      5.82617      6.65496        -0.381853     -0.244884      0.234731
O      11.70818      5.83134     10.78446        -0.525234     -0.164924     -0.396605
O      11.64045      9.70489      2.37352        -0.128673      0.192996      0.657398
O      11.72726      9.86464     15.09561        -0.964911     -0.722475     -0.094311
O      11.70305      9.78899      6.60303        -0.851247     -0.671117     -0.015055
O      11.74775      9.71013     10.85595        -0.910720     -0.422437     -0.168797
O       1.89857      3.78359      2.68396         0.094069      0.476189     -0.728191
O       1.88445      3.77421     14.95516         0.147600      1.546571      0.750377
O       1.84938     15.52848      2.58713         0.365286     -0.253484     -0.189033
O       1.99363     15.58658     15.06906        -0.641202     -0.786970     -0.096639
O      13.65849      3.91990      2.39778        -0.018737     -0.411158      0.113911
O      13.70819      3.89100     14.99804        -0.115076     -0.139520      0.016873
O      13.72629     15.55527      2.55833        -0.245866      0.148326      0.188438
O      13.67414      0.01755     15.06669         0.397152     -0.074985      0.167544
O       2.10093      3.94371      6.72922        -0.639587     -0.180843     -0.294507
O       1.89650     15.53813      6.81583         0.242645      0.848354     -0.106799
O      13.73071      3.90118      6.69422        -0.498886     -0.812807     -0.010741
O      13.89988     15.57019      6.60518        -0.936095      0.240478     -0.110735
O       2.03544      3.93415     10.75718        -0.800458     -0.165923     -0.126672
O       1.94748      0.02453     10.69367         0.045611     -0.258154      0.206349
O      13.50523      3.85324     10.74499         0.256941     -0.038751     -0.061361
O      13.65933      0.02748     10.78491         0.152232     -0.991861      0.061432
O       2.02012      7.81456      2.52178        -0.019115     -0.204954      0.123010
O       1.82928      7.86770     14.97331         0.332356     -0.638315      0.140953
O      13.71909      7.77437      2.46089        -0.216532      0.179982      0.249423
O      13.64320      7.80138     14.84597         0.057376      0.295895      0.543495
O       1.89928      7.82611      6.55251         0.327795      0.484319      0.196601
O      13.62654      7.76702      6.69288         0.224574      0.730712     -0.225810
O       1.89042      7.78939     11.02017        -0.416025      0.073616     -0.762235
O      13.61472      7.68312     10.75140         0.068527      0.771547      0.100955
O       2.17584     11.67850      2.78124        -1.173786      0.430884     -1.115998
O       2.07920     11.71990     14.93335        -0.078382      0.236228      0.096747
O      13.63984     11.70833      2.56921        -0.399383      0.221553      0.004084
O      13.55083     11.78213     14.91243         0.078302     -0.392004      0.461673
O       1.92941     11.68957      6.70912         0.257248     -0.166887      0.005095
O      13.56593     11.62122      6.75622         0.210097      0.483834     -0.626508
O       1.89532     11.63578     10.87688         0.195960     -0.121866     -0.112167
O      13.54868     11.65833     10.91882         0.444448      0.275953     -0.635629
O       5.86452      3.83198      2.69222        -0.192819     -0.237030     -0.595252
O       5.66147      3.87780     14.90888         0.480529     -0.205155      0.572480
O       5.87600     15.55282      2.62533        -0.061665      0.974214     -0.213441
O       5.94595     15.53459     15.02469        -0.491407      0.063714     -0.172234
O       5.70737      3.96632      6.63368         0.568404     -0.967327      0.173516
O       5.83843     15.59188      6.86291        -0.025554      0.300623     -0.050876
O       5.74872      3.87345     10.98981         0.759094      0.054164     -0.454177
O       5.74080     15.49694     10.80564         0.256779      1.458604     -0.347240
O       5.77624      7.71353      2.51551        -0.544740      0.217701      0.061918
O       5.70687      7.76359     14.92466         0.296786     -0.724229      0.797246
O       5.91030      7.82002      6.74430        -0.264791     -0.780654     -0.204412
O       6.05175      7.79006     10.96342        -1.019001     -0.671825     -0.669106
O       5.73542     11.66232      2.38221         0.593093     -0.031805      0.571568
O       5.79291     11.63042     14.96006         0.081105      0.799993     -0.244007
O       5.88791     11.60839      6.78357        -0.407611      0.525775     -0.147955
O       5.78147     11.65998     10.92115         0.106875     -1.109041      0.389593
O       9.87894      3.91953      2.47429        -0.010347      0.239265      0.066860
O       9.67187      3.85736     15.18160         0.097221      0.382887     -0.649414
O       9.65596      0.05279      2.57216         0.374080     -1.002012      0.017835
O       9.61620     15.60239     14.93888         0.025170      0.026554      0.294743
O       9.73532      3.84543      6.66589         0.516880      0.468413      0.004097
O       9.70698      0.01623      6.43635        -0.106385     -1.233578      0.692213
O       9.75968      3.86081     10.82026         0.082404     -0.063748     -0.227125
O       9.62118     15.52599     10.87407         0.193076      1.057065     -0.167192
O       9.69683      7.79252      2.59366         0.223491      0.133421      0.203844
O       9.79027      7.75407     15.13695        -0.236751      0.351376     -1.016696
O       9.82682      7.84047      6.49638        -0.417088     -0.707794      0.268174
O       9.70558      7.66758     11.04798         0.358766      0.486793     -0.486620
O       9.52669     11.72197      2.35130         0.619969      0.138227      0.326673
O       9.78109     11.68341     15.20705        -0.013655     -0.305023     -0.696661
O       9.77449     11.75740      6.79224        -0.641870     -1.040848     -0.379567
O       9.79637     11.68435     10.79874        -0.138406     -0.737922      0.368572
