  # total energy = -7879.87894764 
CRSYTAL
PRIMVEC
    15.6080000000000005    0.0000000000000000    0.0000000000000000
     0.0000000000000000   15.6080000000000005    0.0000000000000000
     0.0000000000000000    0.0000000000000000   16.6239999999999988
PRESSURE
-0.51854 -0.302518 -0.551282 -0.038349 -0.067583 -0.064545
PRIMCOORD
320 1
Pb       3.76841      3.83042      4.10210        -0.014198      0.001122      0.044964
Pb       3.74926      3.75042     16.62204        -0.318606     -0.292326      0.169973
Pb       3.92970     15.43613      4.30229        -0.279235      0.275083     -0.141560
Pb       3.98425     15.58187      0.09276        -0.612266      0.071657     -0.318724
Pb      15.55358      3.85964      4.14709        -0.310211      0.221971     -0.175323
Pb      15.56539      3.96988     16.58602         0.204685     -1.101729      0.196046
Pb       0.11505     15.60203      4.27865        -0.023463      0.135225     -0.566406
Pb       0.00300     15.54099      0.02438         0.180674      0.540039     -0.061699
Pb       4.01918      4.04867      8.33172         0.049449      0.064692     -0.294065
Pb       3.88334      0.08230      8.50291         0.055544     -0.764162     -0.246980
Pb       0.11303      3.94092      8.22298        -0.889774     -0.042347      0.898610
Pb       0.03300      0.09306      8.32628         0.035253     -0.571544      0.620792
Pb       3.95315      3.94097     12.29749        -0.767679     -0.022262      1.354903
Pb       3.91636      0.08971     12.31828        -0.710029     -1.178280      0.369616
Pb      15.50049      3.74636     12.26969         0.138076      0.581237      0.351695
Pb      15.41614     15.58839     12.34363         1.351243     -0.465166     -0.076573
Pb       3.91444      7.67472      4.25469        -0.197564      0.714426     -0.255105
Pb       3.83879      7.82833      0.02205        -0.467496      0.504126     -0.077109
Pb      15.53332      7.76613      4.09852        -0.415746     -0.063153      0.531032
Pb       0.02557      7.79267      0.02759        -0.090706      0.098987     -0.298441
Pb       3.99348      7.86433      8.24817        -0.609928     -0.393625      0.079996
Pb       0.18030      7.86574      8.03374        -0.627116      0.026540      0.759004
Pb       3.74753      7.83355     12.50556         0.244468     -0.037570     -0.236326
Pb       0.03150      7.74677     12.40078         0.303371     -0.043928     -0.563961
Pb       4.00197     11.61582      4.28371        -0.136000      0.003513     -0.252601
Pb       3.91465     11.63876     16.58129        -0.301581      0.022967     -0.652640
Pb       0.07062     11.72758      4.24078        -0.277339     -0.112342     -0.315419
Pb       0.04269     11.65510      0.01535        -0.039745      0.385160     -0.365997
Pb       3.88907     11.46642      8.28457         0.426254      1.215007      0.516001
Pb      15.51479     11.72619      8.39387         0.068950     -0.089612     -0.463489
Pb       3.78031     11.76074     12.61877         0.082256      0.247946     -0.569801
Pb      15.38724     11.67634     12.41669         0.629503      0.176194      0.171492
Pb       7.82376      4.07283      4.12163         0.065375     -0.827127      0.065424
Pb       7.68766      3.69184      0.10371         0.210598      0.097201     -0.539718
Pb       7.81089      0.04356      4.13571         0.523195     -0.510995     -0.009666
Pb       7.80815     15.38491     16.56447         0.184841      0.535070      0.783361
Pb       7.83541      3.99535      8.09866         0.294060     -0.733275      0.608960
Pb       7.72237     15.55701      8.40866         0.733918     -0.114047      0.143052
Pb       7.76441      4.17044     12.45373         0.331062     -1.121570      1.211212
Pb       7.81246      0.11594     12.46180         0.390804     -0.466231     -0.753928
Pb       7.67856      7.76327      4.05812         0.168085      0.492732     -0.037474
Pb       7.92323      7.70701     16.62357        -0.225770      0.307139     -0.355305
Pb       7.71689      7.79129      8.42957         0.399818      0.063179     -0.590880
Pb       7.71788      7.93711     12.57961         0.244277     -0.458162      0.223920
Pb       7.73903     11.68025      4.12824         0.132097      0.117075     -0.212277
Pb       7.89511     11.49917      0.03109        -0.386246      0.300521      0.086307
Pb       7.66988     11.58765      8.42801         0.156273      0.355787     -0.158413
Pb       7.70171     11.72729     12.55841        -0.197431      0.311173     -0.420333
Pb      11.56775      4.02882      4.02086         0.515747     -0.446535      0.142553
Pb      11.65109      3.68176     16.38219         0.428712      0.510000      1.209748
Pb      11.96132      0.21325      4.20042        -1.085261     -0.764254     -0.144558
Pb      11.76534     15.57092      0.04896        -0.305536     -0.473649      0.205713
Pb      11.71347      3.66246      8.07662        -0.399070      0.375966      1.319136
Pb      11.73215     15.38141      8.24284        -0.651203      0.872913      0.552695
Pb      11.55204      3.94293     12.39284         0.238245     -0.222993     -0.526306
Pb      11.88153      0.01250     12.55390        -0.660600     -0.403220     -1.160601
Pb      11.66982      7.93524      4.10517         0.526227     -0.114192     -0.149432
Pb      11.67293      7.73166     16.55273         0.130548      0.133650      0.320661
Pb      11.72534      7.76992      8.16198        -0.168096      0.546188      0.342814
Pb      11.90912      7.51057     12.40346        -1.004052      0.919074      0.068308
Pb      11.50306     12.06018      4.13620         0.852897     -0.412201      0.190215
Pb      11.75196     11.77284      0.01523         0.008583      0.137799      0.554180
Pb      11.58519     11.50580      8.09538         0.282730      0.115297      0.284053
Pb      11.61639     11.55075     12.48295        -0.094381      0.090269     -0.255239
Ti       1.93453      1.92044      2.16934        -0.841207     -0.369925     -0.867803
Ti       1.99214      1.93151     14.45211        -1.341863      0.174561      1.811046
Ti       1.90496     13.63578      2.21330        -0.040644      0.332927      1.448665
Ti       1.89665     13.82880     14.62978         0.101078     -1.503479     -0.926896
Ti      13.67730      2.01312      2.16765        -0.141253     -0.025572      0.146258
Ti      13.69780      1.83777     14.61848         1.654178      0.546854      0.372241
Ti      13.68585     13.71490      2.29183        -1.607842     -0.709743     -0.799789
Ti      13.61846     13.63877     14.74897         0.365189     -0.749388     -0.684503
Ti       2.12914      1.90706      6.45168        -0.833231     -0.466745     -0.259866
Ti       1.96592     13.65188      6.45517         0.752870     -0.197077      0.461707
Ti      13.76670      1.88077      6.46286        -1.104037      0.353549     -0.081290
Ti      13.65840     13.62844      6.40457        -0.435253     -0.424738     -0.650062
Ti       1.95859      2.04843     10.43173        -1.488818     -1.305238      0.689788
Ti       1.84431     13.63142     10.46185         0.796817      0.588308      1.181334
Ti      13.59388      1.93422     10.45251         0.097981     -0.288951     -0.521557
Ti      13.58702     13.51801     10.41491        -0.516943      1.763570     -0.333935
Ti       1.94759      5.88127      2.26933        -1.138250     -0.508310     -0.678133
Ti       1.81704      5.83294     14.69057         0.827228     -0.093589     -0.847163
Ti      13.63501      5.84587      2.24390        -0.639928      0.123206      0.569972
Ti      13.60220      5.74953     14.67819         0.007901     -0.103326     -0.570880
Ti       1.89602      5.71814      6.38626         0.401307      2.065360     -0.302326
Ti      13.49505      5.79118      6.46559         1.866218      0.581032     -0.984870
Ti       1.99327      5.86542     10.47991        -1.489949      0.392912     -0.650508
Ti      13.68255      5.87447     10.41898         0.152747     -1.198189     -0.726389
Ti       1.90893      9.73758      2.27469         1.042173      0.451667     -0.180471
Ti       1.83960      9.80232     14.63958         0.777700      0.392796      0.325506
Ti      13.76177      9.82075      2.12620        -1.881664     -0.019002      1.854340
Ti      13.60777      9.70692     14.69489        -0.279190      0.634547      0.140608
Ti       1.99542      9.85588      6.33729        -0.294668     -1.043802     -0.679241
Ti      13.70030      9.78693      6.19132        -0.335809     -0.496659      0.292913
Ti       2.00816      9.77132     10.48570        -0.417137     -0.120861      0.219100
Ti      13.65956      9.73795     10.44647        -0.452895     -0.359586     -0.861541
Ti       5.76979      1.92276      2.28212         0.333480     -0.188212     -0.804491
Ti       5.81778      1.86034     14.70273        -0.453755      0.831907      0.017264
Ti       5.72493     13.70156      2.21630         0.906496     -1.251223      1.611480
Ti       5.80223     13.68070     14.66685        -0.585262     -1.453191     -0.537437
Ti       5.91451      1.83592      6.36027        -0.004643      0.837392      0.416424
Ti       5.86658     13.64932      6.47958        -1.080550     -1.111231     -0.147688
Ti       5.82318      1.94047     10.50931         0.658783     -0.752187     -0.262917
Ti       5.75793     13.59118     10.49207         0.553935     -0.426052      0.023194
Ti       5.70339      5.75401      2.09682         0.617896      0.956477      2.986107
Ti       5.65064      5.76044     14.86697         1.289729      0.113951     -2.062085
Ti       5.85064      5.85182      6.23705        -0.709872     -0.090425      0.124381
Ti       5.84898      5.82714     10.65324        -0.844000      1.475842     -0.434046
Ti       5.78642      9.72247      2.18148         0.203809      0.127243     -0.078052
Ti       5.77734      9.61938     14.70829         0.047995      1.305658     -0.886122
Ti       5.94153      9.70955      6.38396        -0.613316      0.417447      0.564691
Ti       5.88179      9.69233     10.60774        -1.433390      0.794639      0.039815
Ti       9.68363      1.95816      2.21242         1.085688     -0.252120     -0.089722
Ti       9.72731      1.82633     14.72528        -0.357087      0.286969     -0.474776
Ti       9.61269     13.69678      2.21046         1.620848     -0.122957     -0.681022
Ti       9.64987     13.60986     14.70353         0.906397     -0.030427      0.181213
Ti       9.72700      1.97478      6.23098         0.682584     -0.636235      0.922195
Ti       9.62188     13.68777      6.50634         0.740337      0.603950     -1.330551
Ti       9.70739      1.90271     10.46269         0.525405     -0.345483     -0.033051
Ti       9.73278     13.52669     10.52684        -0.369677      1.508240     -0.506977
Ti       9.67397      5.91280      2.17997         1.242143     -0.453463     -0.055714
Ti       9.68902      5.76335     14.77807        -0.665454      0.287331     -1.097171
Ti       9.71659      5.91324      6.30529         0.187996     -0.192476      0.770549
Ti       9.64674      5.81573     10.41913         1.958695     -0.001192      0.140751
Ti       9.76708      9.76268      2.28702         0.256962      0.045587     -0.494902
Ti       9.77613      9.78852     14.73044        -0.117946     -0.604642     -1.068489
Ti       9.64027      9.75441      6.28756         0.502481     -1.307814      0.501328
Ti       9.75638      9.59136     10.60920         1.033041      0.447537     -0.316211
O       2.01462      1.86355      0.34578        -0.136036      0.033614      1.460481
O       1.87011      1.92919     12.71586         0.273922      0.430688     -0.554776
O       1.87502     13.82024      0.49567         0.139337     -0.240695     -1.038155
O       1.94750     13.62850     12.81429        -0.063966     -0.045324      1.249229
O      13.80982      2.01829      0.39409        -0.610858     -0.241133     -0.085437
O      13.85064      1.69259     12.79658        -1.070703      0.427072      0.595534
O      13.64478     13.66872      0.43683         0.165170     -0.058627      0.661201
O      13.74743     13.78881     12.87751        -0.559229     -0.447419      0.935109
O       1.94250      1.93100      4.66930         0.083719      0.186491      0.054323
O       1.88315     13.65649      4.63718         0.411191      0.186620     -0.108578
O      13.59401      1.81489      4.67837         0.879034      0.383189     -0.020449
O      13.47107     13.63534      4.57952         0.865161      0.257347      0.070065
O       2.06968      1.95742      8.66051        -0.167485     -0.016090     -0.780768
O       1.81206     13.72245      8.70341         0.207941     -0.447590     -0.107544
O      13.52278      1.90111      8.66136         0.346387      0.070038     -0.622894
O      13.66163     13.47488      8.58971        -0.147631      0.273741      0.800924
O       1.86921      5.85530      0.43933         0.045722      0.543254      0.787847
O       1.83644      5.84116     12.87452        -0.156571      0.191915      1.065420
O      13.67726      5.76016      0.49457        -0.050497      0.168927     -1.046256
O      13.75370      5.73098     12.89515        -0.505048      0.579791     -0.089814
O       1.90255      5.75417      4.57012         0.077137     -0.013740      0.191019
O      13.62220      5.77454      4.69621        -0.046141      0.154898     -0.679013
O       2.05900      5.91844      8.67856        -0.044293     -0.269799     -0.081161
O      13.52900      5.78191      8.66048         0.473086      0.361900      0.386545
O       2.02687      9.74302      0.46188        -0.479036     -0.094250      0.343478
O       1.87023      9.68178     12.86037         0.077933      0.218870     -0.324044
O      13.71539      9.79377      0.37074         0.009353     -0.371510     -1.068623
O      13.38298      9.93634     12.91375         1.022616     -0.605744      0.293769
O       1.92248      9.83535      4.53718         0.368275      0.335302      0.209386
O      13.61280      9.80588      4.42793         0.182559     -0.261593      0.630982
O       1.93788      9.70632      8.69831         0.072818      0.358478     -0.398936
O      13.65189      9.71949      8.64589        -0.122817      0.349520      0.685363
O       5.76485      2.06761      0.46116        -0.160913     -0.588010      0.960312
O       5.68975      1.66288     12.93541         0.772103      0.794546     -0.455568
O       5.80024     13.72863      0.50114        -0.078808     -0.222115     -1.324435
O       5.80700     13.66595     12.86738         0.091804      0.277295      0.451088
O       5.85528      1.99202      4.59096        -0.018677     -0.392688     -0.188985
O       5.74946     13.74596      4.64487         0.152401     -0.243116      0.238249
O       5.75764      1.91798      8.74928         0.277510      0.410382     -0.356633
O       5.94999     13.61454      8.68855        -0.191530     -0.436419      0.164403
O       5.62823      5.84898      0.39874         0.244717     -0.057933     -1.785386
O       5.76198      5.74424     12.95177         0.016690     -0.012475      0.702167
O       5.79538      5.85339      4.41843         0.147161     -0.081964      1.389256
O       5.78734      5.95357      8.86377         0.015617     -0.594722      0.280704
O       5.64644      9.72044      0.37061         0.488921      0.402825      0.223990
O       5.77590      9.76489     12.83294         0.100607     -0.612115      1.026229
O       5.94983      9.61274      4.63783        -0.117090      0.507771     -1.125674
O       5.91608      9.67499      8.75695        -0.010840     -0.062499      0.454289
O       9.79680      1.82067      0.42918        -0.209410      0.566560     -0.569311
O       9.71391      1.79198     12.94818        -0.010674      0.180831      0.165482
O       9.72393     13.53818      0.36602        -0.391594      0.401631      0.891525
O       9.60670     13.56667     12.93242         0.344771      0.340807     -0.036534
O       9.62182      2.09029      4.46639         0.039971     -0.631489     -0.378065
O       9.60051     13.66837      4.65502         0.105411     -0.545487      0.053322
O       9.70075      1.96271      8.71029        -0.052909     -0.019697      0.147825
O       9.75329     13.78172      8.69650        -0.159386     -0.806966     -0.041328
O       9.72769      5.91216      0.37933        -0.243042      0.246470     -0.140810
O       9.72985      5.73998     12.96246        -0.070499     -0.044482     -0.054141
O       9.71703      5.82912      4.53514        -0.282558     -0.024930     -0.538936
O       9.71824      5.97841      8.66805        -0.494670     -0.537585      0.285637
O       9.51435      9.70680      0.44986         0.631026     -0.033873     -0.496083
O       9.84579      9.88617     12.87724        -0.365470     -0.320979      0.903332
O       9.51574      9.68503      4.52681         0.212552      0.012404     -0.507498
O       9.80209      9.60577      8.83452        -0.486222      0.067344     -0.136519
O       3.79922      1.82083      2.57386         1.438925      0.185205      0.087976
O       3.82523      1.76150     14.93481         0.641637      0.411534      0.054027
O       3.84583     13.89373      2.55314        -0.458014     -0.837504     -0.227797
O       3.88693     13.78441     15.10275        -0.393032      0.251712     -0.388446
O      15.59541      2.07988      2.51914         0.098830     -0.228982      0.283792
O       0.02886      1.96693     14.90596        -0.634542      0.319200      0.001092
O      15.50280     13.58082      2.58484         1.016364      0.216465      0.146937
O       0.02287     13.46610     15.02873        -0.220740      0.530050     -0.014578
O       3.96969      1.90879      6.73313         0.441152      0.665583     -0.405230
O       3.91130     13.52188      6.85287         0.401996      0.669940     -0.540848
O       0.02865      1.86411      6.77201        -0.035667      0.249081     -0.446348
O       0.07429     13.59258      6.68623        -0.976920      0.013915     -0.228504
O       3.80520      1.86857     10.82007         1.365667      0.494354     -0.256886
O       3.88670     13.72384     10.85662        -0.519616     -0.421669     -0.511854
O      15.58923      2.06911     10.64763         0.422963     -0.546202     -0.104832
O      15.52518     13.38075     10.75157         0.401915      0.380637     -0.100902
O       3.82537      5.89823      2.63355         0.149778      0.085977     -0.643144
O       3.78798      6.08159     15.01595        -0.028816     -0.745244     -0.244179
O      15.51296      5.79162      2.58053         1.219378      0.060531      0.104157
O      15.53250      5.77077     15.06380         0.198311      0.409231     -0.161052
O       3.86828      5.81936      6.71415         0.774954     -0.250347     -0.607787
O      15.57791      5.85812      6.78769         0.923992     -0.163670     -0.464669
O       3.78847      5.86701     10.99645         1.617448     -0.259302     -0.427179
O       0.01179      5.83712     10.66090        -0.761653     -0.092932      0.409586
O       3.85076      9.65895      2.56638         0.290370      0.507047      0.343212
O       3.84170      9.80182     14.92612         0.451956     -0.872524      0.142888
O       0.01575      9.85796      2.49600        -0.216204     -0.427156      0.029422
O      15.54866      9.83262     15.01468        -0.330492      0.066355     -0.288735
O       3.98229      9.82632      6.62106        -0.302707     -0.435178      0.022247
O       0.02904      9.89793      6.44183        -0.088660     -0.207169      0.609649
O       3.86484      9.59938     10.72273         0.179379      0.091783      0.407832
O      15.57407      9.80052     10.79284        -0.317586      0.091518      0.254902
O       7.75742      1.97281      2.38977        -0.780411      0.169171      0.384348
O       7.79616      1.98590     15.03184        -0.140169     -0.098555     -0.065004
O       7.78699     13.50831      2.46398        -0.589219      0.444459      0.252194
O       7.72834     13.56738     15.01197         0.276176      0.518739     -0.005277
O       7.85752      1.92270      6.67495        -1.561255      0.272961     -0.027680
O       7.77838     13.61208      6.74756        -0.522113     -0.003963      0.151725
O       7.67173      1.99179     10.84583         0.467751     -0.239253      0.061369
O       7.80803     13.48756     10.80346        -0.482309      0.450914      0.212487
O       7.79460      5.64753      2.47870        -1.310417      1.101166     -0.670839
O       7.69105      5.73926     15.00143         0.453039     -0.070740      0.447801
O       7.74876      5.84267      6.63711        -0.056924      0.011954     -0.328055
O       7.77511      5.78325     10.88053        -0.491057      0.478692     -0.452777
O       7.77292      9.80758      2.41420        -1.262817      0.035391      0.413804
O       7.73905      9.84056     14.89416         0.235311     -0.318706      0.201896
O       7.77131      9.61768      6.83963         0.243076     -0.113818     -0.087375
O       7.76003      9.72306     10.93882         0.471664     -0.072266     -0.171536
O      11.69629      2.00504      2.45644         0.148371     -0.406763      0.228979
O      11.76142      1.78360     14.90020        -0.387735     -0.101845      0.105699
O      11.67292     13.69642      2.46581        -0.077025     -0.063592      0.248307
O      11.70251     13.67131     15.05807        -0.281757      0.374607     -0.416846
O      11.61536      1.85713      6.59936         0.408476     -0.208485     -0.130107
O      11.68557     13.73398      6.63423        -0.372959     -1.093286      0.127871
O      11.73970      1.99659     10.79878        -1.160133     -0.671521      0.563369
O      11.68228     13.78629     10.80497         0.507789     -0.253369      0.106965
O      11.62672      5.83163      2.47421         0.237322      0.451166      0.208078
O      11.69108      5.76598     15.00571         0.317247      0.580776     -0.039880
O      11.67915      5.80089      6.70440        -0.909605      0.563318     -0.316421
O      11.71144      5.81080     10.73799        -0.049993      0.281732      0.720603
O      11.66388      9.52203      2.42713        -0.600884      0.439049     -0.225238
O      11.65230      9.66349     15.13728        -0.247082      0.326755     -0.251216
O      11.58029      9.64197      6.56087         0.447925      0.254489      0.039167
O      11.69384      9.63912     10.84673        -0.092636      0.221815     -0.070703
O       1.99661      3.89285      2.36163         0.158377      0.244714      0.802896
O       2.03644      3.89617     15.04987        -0.378951      0.525052     -0.784445
O       1.74149      0.04095      2.59295         0.074421     -0.577176      0.016246
O       1.71227      0.05581     14.81816         0.488615     -0.726151      0.181909
O      13.62616      3.87886      2.63171        -0.025648      0.333680     -0.073362
O      13.56962      3.77188     14.81331         0.124511      0.566468      0.391540
O      13.68487      0.03990      2.57315         0.189969      0.007667     -0.272337
O      13.74742     15.51104     15.14618        -0.266774      0.986200     -0.676831
O       1.88301      3.91446      6.69516         0.630011     -1.022369     -0.108881
O       2.10941     15.60295      6.76363        -0.564397      0.058008     -0.450587
O      13.62806      3.86353      6.66468         0.410854     -0.779867      0.061413
O      13.63510     15.50770      6.76512         0.619380      0.911025     -0.344570
O       1.93491      3.91956     10.61487         0.416119     -0.080985      0.532913
O       1.80018     15.59168     10.73909         0.207114     -0.205051     -0.345170
O      13.65904      3.79748     10.80791        -0.173999      1.594375      0.168103
O      13.79110     15.56513     10.66409        -0.355502     -0.309392      0.105991
O       1.81560      7.81412      2.65316         0.258895     -0.580594     -0.624741
O       1.78207      7.90128     15.02091         0.034646     -1.250784     -0.023832
O      13.65540      7.82959      2.57821         0.400581     -0.922403     -0.275999
O      13.59319      7.79342     14.89236         0.293012     -0.537298      0.217684
O       2.08871      7.89351      6.63377        -0.532724     -0.396957     -0.265210
O      13.72468      7.86840      6.58229        -0.388865     -0.359584      0.053587
O       1.88543      7.75303     10.77640        -0.137335      0.635405      0.624195
O      13.67835      7.82113     10.82610         0.046069     -0.858089      0.114206
O       1.84506     11.74013      2.48982         0.739858      0.196092      0.057847
O       2.05515     11.71475     14.96099        -0.285417      0.009441      0.223365
O      13.46498     11.61297      2.46153         0.430878      1.175038     -0.075608
O      13.48255     11.71677     15.00074         0.512075     -0.234200     -0.043627
O       2.14032     11.71593      6.72112        -0.999402     -0.168885     -0.158785
O      13.58422     11.68525      6.59222         0.009817     -0.148128      0.206152
O       2.08837     11.67867     10.74724        -0.367123     -0.234698      0.106271
O      13.57077     11.68937     10.66273        -0.319677     -0.848054      0.703489
O       5.66120      3.93207      2.49329         0.152536     -0.958289     -0.091338
O       5.70149      3.84025     15.09867        -0.176214      0.302669     -0.358158
O       5.91508     15.54303      2.54843        -0.083207      1.657814      0.091339
O       5.88970      0.06936     15.14717         0.152908     -1.304611     -0.121962
O       5.93897      3.95836      6.74793        -0.728885     -0.551324     -0.421943
O       5.82095     15.53396      6.75345         0.241125      1.592866     -0.335076
O       5.79200      3.89718     10.92044        -0.297350     -0.355711     -0.570341
O       5.76678     15.48603     10.57652         0.479651      1.965555      0.947407
O       5.78648      7.84279      2.49047         0.346781     -1.042639     -0.159725
O       5.89204      7.77575     15.05082        -0.271806      0.128908     -0.244801
O       5.79053      7.76597      6.60591         0.114502     -0.805783      0.229585
O       5.74284      7.76038     10.92026         0.798735     -0.248209      0.243978
O       5.76161     11.71129      2.65931        -0.391006     -0.152880     -0.401823
O       5.72478     11.75750     14.87589        -0.077063      0.021292      0.521615
O       5.91487     11.65079      6.64236         0.247227      0.016235      0.092813
O       5.73267     11.65329     10.80199         0.254911     -0.488908      0.143164
O       9.73801      3.90776      2.42110        -0.245918     -0.083240      0.139585
O       9.85632      3.87720     14.93110        -0.473102     -1.197091      0.366883
O       9.75502     15.56102      2.55726        -0.850679      0.560535     -0.179976
O       9.72375     15.54279     15.10059        -0.253732      0.051164     -0.491062
O       9.85631      3.92650      6.52058        -1.088718     -0.374801      0.486480
O       9.63371     15.57084      6.63229         0.034623      0.440462     -0.104636
O       9.79595      3.90253     10.73904        -0.597778      0.201237      0.529630
O       9.63679      0.03393     10.77106        -0.227977      0.134648      0.464836
O       9.61460      7.81062      2.62390        -0.117146     -0.932383     -0.651438
O       9.64149      7.77504     14.90403         0.072677      0.273154      0.538655
O       9.65453      7.70557      6.70587         0.249908      0.861160     -0.336826
O       9.67018      7.71538     10.93740        -0.133727      0.065060     -0.010827
O       9.83935     11.65969      2.53368        -0.589848      0.316615     -0.072445
O       9.75448     11.70139     14.97855         0.059331     -0.500248      0.302210
O       9.56955     11.53783      6.60831         0.487060      1.685692      0.615191
O       9.79709     11.73245     10.72705         0.188733     -1.485520      0.206591
