  # total energy = -7874.54534950 
CRSYTAL
PRIMVEC
    15.6080000000000005    0.0000000000000000    0.0000000000000000
     0.0000000000000000   15.6080000000000005    0.0000000000000000
     0.0000000000000000    0.0000000000000000   16.6239999999999988
PRESSURE
-0.081673 0.436793 -0.826478 -0.052794 -0.09857 0.045004
PRIMCOORD
320 1
Pb       4.02753      3.99439      4.14218        -0.404194     -0.740979     -0.089789
Pb       4.10068      4.09047      0.16561        -0.560141     -0.121427     -0.610585
Pb       3.86739      0.03420      4.00115         0.229865      0.070073     -0.490804
Pb       3.76011     15.57355     16.61097         0.086005     -0.161326     -0.058865
Pb       0.10194      3.83233      4.19316        -0.154468     -0.164747     -0.351909
Pb      15.48180      3.80045     16.60182         0.173961      0.196857      0.432823
Pb      15.55833     15.54310      4.00845        -0.175487     -0.285298      0.059524
Pb      15.48501     15.56470     16.55446         0.248498     -0.274558      0.559293
Pb       3.62535      3.75047      8.35316         0.698851      0.588695     -0.030050
Pb       3.89177      0.08644      8.27671        -0.129196     -0.674775      0.449691
Pb      15.53749      3.77759      8.29416        -0.601407      0.205513     -0.165369
Pb       0.14750     15.58494      8.21233        -1.230194     -0.307830     -0.237602
Pb       3.90186      3.93646     12.40023        -0.541139      0.146603     -0.071416
Pb       3.83716     15.39925     12.29804        -0.405836      0.163177      1.003172
Pb      15.59343      3.79129     12.44482         0.235590      0.335882     -0.193551
Pb      15.57341      0.32445     12.63910        -0.024933     -0.885532     -0.270374
Pb       3.79494      7.87279      4.32042        -0.103715     -0.075589     -0.519048
Pb       3.81004      7.74377     16.61693         0.334062     -0.104523     -0.465840
Pb       0.25025      7.91148      4.27068        -0.892458      0.217844     -0.596334
Pb       0.04232      7.73083      0.00298        -0.123772      0.442954      0.310153
Pb       4.05856      7.65783      8.13395        -1.013088      0.592794      0.370090
Pb      15.36514      7.73940      8.61913        -0.058535      0.277224     -0.604079
Pb       3.92651      7.89939     12.42349        -0.353536     -0.581107      0.249098
Pb      15.57980      7.99714     12.61787         0.249518     -0.268857     -0.088985
Pb       3.81791     11.67026      4.07016         0.051911      0.282037      0.311324
Pb       3.92139     11.62171     16.45483        -0.475124      0.365912     -0.384166
Pb      15.58406     11.67304      4.04650        -0.344380     -0.258007      0.636165
Pb      15.53297     11.85644     16.56278         0.275140     -0.556796     -0.112729
Pb       3.83913     11.63135      8.03515         0.090334      0.505043      0.848472
Pb      15.58216     11.60188      8.32867        -0.712299      0.267202     -0.400503
Pb       4.05894     11.67592     12.26766        -0.768507     -0.082609      1.129945
Pb       0.24335     11.52454     12.29778        -1.198016      0.716597      0.701185
Pb       7.85521      3.70352      4.19992        -0.126887      0.296983      0.652647
Pb       7.84158      4.00685      0.12273        -0.238915      0.045584     -0.725122
Pb       7.75889     15.40843      3.98501         0.419637      0.646195      0.672677
Pb       7.90801      0.19195      0.13188        -0.041873     -0.621729     -0.611179
Pb       7.55004      3.97704      8.36669         0.634239     -0.222708     -0.529478
Pb       7.89349     15.50802      8.33599        -0.213495      0.414294     -0.292500
Pb       7.63787      3.74902     12.41698         0.815926      0.715083     -0.222466
Pb       7.63247     15.56445     12.57138         0.530998     -0.680534     -0.042622
Pb       7.68521      7.86241      4.15554         0.909927     -0.069963      0.476016
Pb       7.81199      8.03550     16.58091        -0.633913     -0.635609      0.036765
Pb       7.82605      7.75225      8.25357        -0.035884      0.172162      0.045484
Pb       7.82403      7.54239     12.35842         0.243693      0.928772      0.006912
Pb       8.01660     11.69428      4.34240        -0.196006      0.430545     -0.526356
Pb       7.61815     11.69634      0.00721         0.319210     -0.305829     -0.067696
Pb       7.60408     11.74451      8.08069         0.031166      0.247503      0.735965
Pb       7.66371     11.45343     12.39464         0.658966      0.583090      0.206768
Pb      11.81766      3.90852      4.41000         0.037182      0.230987     -0.445891
Pb      11.83586      4.09682      0.15575         0.037774     -0.243655      0.010624
Pb      11.51699     15.45903      4.18937        -0.243987     -0.357285     -0.281348
Pb      11.55237     15.49861      0.10201         0.613650      0.249682     -0.897780
Pb      11.76637      4.13906      8.43310        -0.023473     -0.184686     -0.044679
Pb      11.61960      0.14817      8.25330         0.159632     -0.367719      0.516017
Pb      11.85300      3.81442     12.66067         0.145028     -0.172885     -0.740337
Pb      11.87181     15.53184     12.42297        -0.696857      0.192749      0.496772
Pb      11.73695      7.44560      4.03111         0.327620      1.691912      0.819645
Pb      11.38083      7.77857      0.03333         0.459110      0.306925     -0.308569
Pb      11.51795      7.96572      8.24985         0.856499     -0.400158      0.106402
Pb      11.47375      7.91528     12.70643         0.321576      0.407799     -0.561638
Pb      11.63884     11.24695      4.29382         0.476232      0.701250     -0.277725
Pb      11.81977     11.80730     16.50078        -0.787151     -0.458459      0.327783
Pb      12.06503     12.00095      8.46755        -0.488494     -1.380102     -0.262150
Pb      11.59991     11.91417     12.40581         0.406019     -0.431297     -0.613169
Ti       1.77119      1.81791      2.13058         1.345673     -0.128215     -0.321229
Ti       1.97233      1.96300     14.75026         0.490789     -0.988911      0.103907
Ti       1.89598     13.49354      2.14758         0.076482      2.070177      0.550347
Ti       1.88690     13.66861     14.52523         1.399793     -0.782490     -0.604646
Ti      13.51053      1.91920      2.21174         0.270187     -0.366617     -1.231755
Ti      13.55603      1.97770     14.87981        -0.896260     -1.767186     -0.134080
Ti      13.52399     13.57640      2.26045         0.254899     -0.152016     -0.487889
Ti      13.66076     13.59065     14.65837        -0.548768      1.722384     -1.052399
Ti       1.89445      1.93864      6.33976        -0.409300      0.611354     -1.287494
Ti       1.93656     13.78284      6.09012        -0.700154     -1.905317      0.628596
Ti      13.59571      1.87078      6.26757         1.689770     -0.295572      0.061368
Ti      13.70147     13.64903      6.17299         0.029178     -0.371889      0.515015
Ti       1.94768      1.90978     10.50847        -0.317827      0.247030      1.845778
Ti       1.96587     13.50122     10.38343        -0.347625      0.487800      2.493537
Ti      13.57879      1.91566     10.46765         0.471680      0.585112     -0.565520
Ti      13.74448     13.72430     10.51760         0.639586     -1.629033      0.963331
Ti       2.05526      5.70583      2.22875        -0.559970      0.729650     -0.079386
Ti       1.80234      5.69481     14.76414         1.492923      1.162344     -0.114463
Ti      13.83926      5.82670      2.18375        -0.391161      1.172602     -0.091140
Ti      13.53612      5.97049     14.67375         0.608678     -0.226422     -1.128517
Ti       1.86579      5.89074      6.29441         0.164604      0.457355      0.946265
Ti      13.68201      5.86245      6.30681        -0.596796      0.363818      0.071642
Ti       2.05313      5.88459     10.42566        -0.154445     -0.668406     -0.288873
Ti      13.84047      5.79116     10.62739        -1.446528     -0.185250     -0.343026
Ti       1.92907      9.73154      2.15368        -0.898475     -0.842460     -0.427052
Ti       1.96032      9.64117     14.60331        -0.724476      0.941961      0.192942
Ti      13.63911      9.70295      2.17239         0.346829     -0.518551      0.980754
Ti      13.62113      9.75643     14.60981         0.191028      0.071058      0.210081
Ti       1.78334      9.79188      6.45333         0.813236     -0.563872     -0.712759
Ti      13.65594      9.63235      6.26246        -0.757881      1.421375      0.681867
Ti       2.01873      9.67081     10.40504        -0.159614     -0.508236      1.208878
Ti      13.49054      9.60626     10.68083        -0.021485      2.076057     -1.040564
Ti       5.82394      2.02405      2.11325        -0.613541     -1.228258     -0.035412
Ti       5.89812      2.03509     14.60344        -1.014764     -0.617430      1.771593
Ti       5.83467     13.53459      2.16165        -0.171913      1.254792     -0.793774
Ti       5.95105     13.80415     14.85896        -1.310332     -1.786311     -1.280955
Ti       5.83315      1.85460      6.41391         0.987583      1.305047     -0.735469
Ti       5.71189     13.81284      6.32694         0.820370     -1.636802      1.319681
Ti       5.86038      1.86984     10.52432        -1.518919     -0.109875     -0.709843
Ti       5.91799     13.58304     10.52356        -0.762915     -0.322466     -2.287684
Ti       6.01397      5.85716      2.35345        -0.761839      0.493494     -0.389095
Ti       5.88197      5.78660     14.63050        -0.872705      1.613984     -0.290587
Ti       5.76688      5.79759      6.24421         0.377339      0.045430      0.297020
Ti       5.93264      5.87998     10.52562        -0.583407     -0.415097      0.297992
Ti       5.75823      9.76322      2.28469         0.401374     -0.278884     -1.521216
Ti       5.80568      9.66956     14.63278         0.259153      0.299901      1.140268
Ti       5.79808      9.72457      6.24439        -0.448903      0.905902      1.153492
Ti       5.88985      9.63552     10.41764        -0.203566      0.590111     -1.454223
Ti       9.76935      2.06056      2.16938        -0.384657     -1.398389      0.701189
Ti       9.70596      2.07208     14.64673         1.156882     -1.883211     -0.529219
Ti       9.76682     13.52630      2.17106        -0.313352      0.051609      0.063284
Ti       9.66277     13.65224     14.64145         0.585225      0.772167     -0.290892
Ti       9.82227      1.86456      6.30513        -1.500303      0.421714      0.856441
Ti       9.85565     13.58635      6.48988        -0.686829      0.855970     -1.326257
Ti       9.62321      1.91811     10.57545         1.925685      0.258835     -1.310164
Ti       9.66167     13.64704     10.38185         0.983645     -0.169801      0.557196
Ti       9.75516      5.77715      2.28646         0.325925      1.692060      1.293037
Ti       9.64455      5.85919     14.49018         0.547046      0.259435      0.886707
Ti       9.67380      5.76739      6.34019         0.570889     -0.547179      0.293947
Ti       9.94132      5.74465     10.47504        -1.289864      0.565123     -1.053415
Ti       9.62964      9.63855      2.27258         0.610741      0.602360     -0.106407
Ti       9.72114      9.89754     14.63148        -0.276166     -1.094932     -0.211515
Ti       9.69682      9.72876      6.37991         1.082576      0.344538     -0.275725
Ti       9.72996      9.74665     10.30816         0.777847      0.044150      0.375357
O       1.91361      1.56383      0.36177        -0.063182      0.742722      0.601381
O       1.77014      1.98223     12.93867         0.186025      0.240118      0.233878
O       1.71365     13.60356      0.40454         0.468910     -0.108758     -0.903554
O       2.06009     13.62688     12.70079        -0.394174      0.197510      1.238806
O      13.37599      1.90986      0.30824         0.522575      0.553590      1.426592
O      13.61210      1.88298     13.04254         0.430258     -0.114707     -0.551109
O      13.47270     13.40855      0.38012         0.613436     -0.103226      0.510117
O      13.66832     13.82812     12.85643        -0.210222     -0.435984      0.354550
O       1.85527      1.97456      4.55774        -0.015682      0.089829     -0.488495
O       1.99337     13.65035      4.32502         0.085313     -0.064049      1.017960
O      13.69666      1.97604      4.45507        -0.312770     -0.080206     -0.623452
O      13.52161     13.68097      4.41390         0.300424     -0.065184      0.027233
O       1.86539      2.10848      8.75999        -0.024210     -0.386645     -1.368088
O       1.88438     13.69857      8.68099        -0.138777     -0.179126     -1.079221
O      13.66187      1.95057      8.64880        -0.241033     -0.141087      0.711104
O      13.78529     13.53753      8.73775         0.247007      0.526773     -0.590291
O       2.10722      5.92493      0.46674        -0.257209     -0.057942     -0.676898
O       1.94614      5.71141     13.02598        -0.283613     -0.173014     -0.096656
O      13.57061      6.10893      0.38867        -0.141589     -1.135119     -0.589601
O      13.64267      5.67274     12.81426        -0.078556      0.381239      0.811612
O       1.76111      5.82493      4.49225         0.335908     -0.639070     -0.199279
O      13.57837      5.74113      4.48548         0.558226     -0.480577      0.330120
O       2.24251      5.75043      8.62968        -0.776895      0.158632     -0.007752
O      13.70256      5.75253      8.77421        -0.043641      0.292941     -0.251495
O       1.90301      9.66510      0.33516        -0.116085      0.142455      0.732284
O       2.00871      9.49435     12.80651        -0.283811      0.150990     -0.348497
O      13.80428      9.69276      0.39367        -0.624481     -0.018859     -0.141228
O      13.59722      9.77947     12.83568        -0.336318     -0.485626     -0.528605
O       1.78514      9.81585      4.63555         0.443578     -0.564068     -0.190108
O      13.81969      9.79355      4.53546        -0.327451     -0.003698     -0.476173
O       1.91161      9.86704      8.68927        -0.244289     -0.462536     -1.355089
O      13.52020      9.69639      8.81198         0.348079     -0.371911      0.332062
O       5.83863      2.13586      0.29873         0.478177     -0.453788      0.980755
O       5.83019      2.01271     12.83156         0.581151     -0.280565     -0.552176
O       5.98794     13.67052      0.31258        -0.446451     -0.547805      0.928465
O       5.89887     13.65734     13.00927         0.179470     -0.297722     -0.353009
O       5.77195      1.80420      4.63119        -0.214270      0.571474      0.084601
O       5.74882     13.68056      4.59813        -0.017152     -0.015666     -1.073438
O       5.77430      1.79313      8.73805         0.011061      0.317348      0.021627
O       5.81111     13.62054      8.68898        -0.197339      0.292787      1.143088
O       5.94893      5.73058      0.52850         0.178538      0.215989      0.106603
O       5.92119      5.76244     12.79217         0.086641      0.046718      0.469278
O       5.76177      5.68399      4.49065         0.411351      0.117191     -0.346695
O       5.82637      5.92201      8.74282         0.170753     -0.107438     -0.572182
O       5.87586      9.65976      0.39195        -0.755185     -0.003518      1.355767
O       5.92869      9.75478     12.84709         0.041008     -0.403328     -0.272236
O       5.71053      9.87189      4.47936         0.189299     -0.319932     -0.477651
O       5.85565      9.64358      8.60760        -0.207486     -0.296599      0.904995
O       9.53446      2.03722      0.37801         0.701552      0.267264      0.476388
O       9.70242      1.85854     12.85297        -0.417700      0.323979     -0.586766
O       9.66870     13.60736      0.34434         0.329357     -0.072863      1.109611
O       9.69018     13.63444     12.79602        -0.126357     -0.025183      0.580919
O       9.83443      1.72201      4.55322        -0.242442      0.691136     -0.656680
O       9.62652     13.81351      4.60428         0.376671     -0.491467      0.679119
O      10.02297      1.95576      8.74608        -0.717887     -0.081469      0.784904
O       9.79595     13.69449      8.57309        -0.140661     -0.374289      0.322401
O       9.70771      5.85324      0.54265        -0.106526     -0.211498     -1.726120
O       9.78655      5.84282     12.72387        -0.150698      0.260983     -0.467363
O       9.82172      5.82438      4.55151         0.336969      0.080401      0.672115
O       9.88582      5.69384      8.57785        -0.539241     -0.126243      0.376911
O       9.71131      9.58291      0.46069        -0.019365      0.275482      0.137711
O       9.61075      9.82165     12.82431         0.155900     -0.366447      0.181272
O       9.56155      9.75974      4.51777         0.115088      0.262374      0.460485
O       9.89719      9.72505      8.50436        -0.403362      0.219366      0.258392
O       3.90914      1.82118      2.41667         0.478597      0.286376      0.004775
O       3.91954      2.00941     14.86746        -0.092998     -0.726857      0.205345
O       3.88178     13.50006      2.34150         0.226165      0.557735      0.024442
O       3.81766     13.78873     15.03484         0.256112     -0.248028      0.152782
O      15.47089      1.81981      2.38434         0.859830      0.301807     -0.070689
O      15.51053      1.88688     15.16798         0.080530      0.322324     -0.626901
O      15.49394     13.58434      2.54043        -0.028685     -0.117049     -0.415750
O      15.59680     13.60998     14.92956        -0.258129     -0.519146     -0.057695
O       3.78744      2.02577      6.75696         0.289155     -0.360239     -0.173529
O       3.75295     13.64706      6.67995         0.608928      0.109800     -0.438501
O      15.58374      1.79501      6.63422         0.430442      0.468814      0.332729
O      15.59984     13.66511      6.35994         0.738455      0.140211      0.422989
O       3.89624      1.87669     10.80553        -0.174549      0.551796     -0.070875
O       3.97959     13.46600     10.80717        -1.052063      0.524096     -0.342439
O      15.52906      1.94438     10.85210         1.013645     -0.012533      0.084433
O       0.08157     13.41995     10.81739         0.260128      0.489139     -0.628975
O       3.93420      5.79364      2.50083         0.242455     -0.371372      0.433995
O       3.89965      5.85869     14.98557         0.089426     -0.363308      0.301037
O       0.11677      5.68113      2.21979        -0.842470      0.044968      0.659812
O      15.52471      5.91022     15.06586        -0.182708     -1.104131     -0.017652
O       3.88331      5.95274      6.33808        -0.429858     -0.665296      0.580478
O      15.54575      6.09594      6.71755         0.146887     -0.766774     -0.167895
O       3.88204      5.87264     10.87451         1.043585     -0.540283      0.157059
O       0.04807      5.81102     10.60755         0.808447      0.407124      0.464375
O       3.77938      9.80426      2.54592         0.841131     -0.363883     -0.014732
O       3.79188      9.60059     14.91255         1.543197     -0.172804      0.180212
O       0.03113      9.73101      2.65909         0.048674      0.128299     -1.174920
O      15.50891      9.73402     14.66566         0.592906     -0.235744      0.656995
O       3.82207      9.74422      6.65774         0.310907     -0.206571     -0.359653
O      15.51703      9.51008      6.75731         0.575209      0.383567      0.365329
O       3.95502      9.65177     10.80067        -0.101957     -0.008415     -0.255359
O       0.00104      9.64594     10.88596         0.462802     -0.257332     -0.461040
O       7.79168      2.03157      2.57063         0.117910     -0.524528     -0.692418
O       7.82408      2.03484     14.93456        -1.258809      0.080328      0.007885
O       7.77272     13.56612      2.62750         0.061860     -0.434206     -0.763227
O       7.77265     13.42242     15.01060         0.501794      0.521872     -0.378964
O       7.76213      1.80927      6.63292        -0.549078      0.493544      0.227830
O       7.65805     13.84385      6.77010        -0.198056     -0.941469     -0.845746
O       7.71765      1.71440     10.69024         0.325568      0.251953      0.581099
O       7.81428     13.54659     10.61671        -0.157417     -0.046815      0.510654
O       7.86379      5.83936      2.87969        -0.490153     -0.351430     -1.233450
O       7.80741      5.89595     14.87721        -0.168671     -0.491584      0.046673
O       7.78969      5.88155      6.64437        -0.305599     -0.081722     -0.017235
O       7.85355      5.87932     10.76250        -1.382392     -0.176207     -0.288845
O       7.64106      9.68696      2.46689         1.126146     -0.015202      0.411366
O       7.74302      9.76026     15.03099        -0.032668      0.231102     -0.342127
O       7.71542      9.84301      6.59271         0.184836     -0.479338     -0.155780
O       7.87187      9.56048     10.48086        -0.947148      0.342010      0.925316
O      11.64221      2.00174      2.36453        -0.460153      0.126228      0.432059
O      11.61067      1.71556     14.91005        -0.118127      0.945819      0.247788
O      11.64210     13.54843      2.58244        -0.680108      0.009359     -0.597863
O      11.64673     13.68811     14.87343        -0.293972     -0.704135      0.260187
O      11.77513      1.65786      6.42364        -1.089373      0.892988      0.359996
O      11.70298     13.62867      6.59912         0.376995      0.205903      0.082435
O      11.73587      2.04485     10.94481        -0.158035     -0.542879     -0.334660
O      11.80279     13.69451     10.75788        -0.648150     -0.281951     -0.015240
O      11.75024      5.88836      2.41883        -0.725866     -0.732722     -0.185428
O      11.65424      5.99321     14.80129        -0.668360     -0.769210      0.686559
O      11.77736      5.73647      6.64068        -0.566280     -0.164796     -0.351578
O      11.70874      5.49726     10.60893         0.531068      0.060466      0.718341
O      11.66398      9.58736      2.68193         0.213198     -0.101972     -0.927857
O      11.61705      9.69723     14.89786         0.201750     -0.064285      0.090775
O      11.68803      9.84414      6.41867        -1.222145     -0.140214      0.127222
O      11.61748      9.57123     10.88255        -0.047664      0.266642      0.071915
O       2.04283      3.73333      2.36076        -0.512230      0.412231      0.217756
O       1.90806      3.73338     15.37287        -0.351119      1.586055     -0.967345
O       1.86390     15.47415      2.55718         0.311429      1.324653     -0.242330
O       1.77468     15.56834     14.89384         0.456066      0.276639     -0.134638
O      13.64914      3.88177      2.31022        -0.253529     -0.379163      0.153564
O      13.52155      3.83649     15.00648        -0.126643      1.256288      0.337134
O      13.48933     15.48187      2.18395         0.187796      0.994979      0.902907
O      13.61700     15.43973     15.19524        -0.083768      0.615226     -0.599821
O       1.76829      3.89479      6.61849         0.227920      0.439503     -0.030278
O       1.94317      0.00633      6.42837         0.093508      0.040899      0.745516
O      13.73259      3.78910      6.52671         0.012184      0.817644      0.056868
O      13.72989     15.52515      6.56761        -0.148206      0.091204      0.202421
O       1.95376      3.95566     10.93260         0.164947     -0.776132     -0.450134
O       1.98756      0.06634     10.71185        -0.228706     -1.025941     -0.117538
O      13.79866      3.84469     10.85054        -0.402119     -0.257190      0.016135
O      13.78710     15.58179     10.76786        -0.356065      0.817972      0.030278
O       1.99890      7.79706      2.60714        -0.155265      0.027417     -0.216462
O       1.77527      7.73795     14.93614         0.419598     -0.395912      0.381194
O      13.81132      7.71401      2.61002        -0.172744      0.191082     -0.239481
O      13.51990      7.79998     14.69441         0.572113     -0.055133      0.330949
O       2.01730      7.76251      6.51541        -0.128553     -0.102516      0.143786
O      13.38333      7.83877      6.42004         0.606768     -2.113070      0.649721
O       2.04883      7.75372     10.62346        -0.452412      0.073258      0.278301
O      13.60157      7.73912     10.85781         0.370324     -1.041570      0.229805
O       1.92678     11.71725      2.50206        -0.337544     -1.978647     -0.134997
O       2.06584     11.63262     14.73274        -0.608501      0.331468      0.621770
O      13.56661     11.56149      2.56605         0.159852      0.308035     -0.512438
O      13.58681     11.68429     14.91561        -0.059253     -0.236170      0.148462
O       1.82708     11.65451      6.49447         0.024861      0.902971      0.721894
O      13.67104     11.67063      6.67297         0.405758      0.638490      0.063268
O       2.04174     11.54173     10.81466         0.028058      0.985616     -0.408419
O      13.61212     11.63140     10.83712        -0.233175      0.334538     -0.027114
O       5.95367      3.90526      2.48875        -0.598228     -1.004924      0.374810
O       5.82402      3.96447     14.95159         0.444524     -0.999427     -0.059079
O       5.84437     15.48414      2.38272         0.065485      0.781942      0.118021
O       6.09147     15.60358     14.94283        -0.299333      1.708876     -0.009120
O       5.79083      3.98061      6.61895         0.196168     -1.209589      0.522173
O       5.62764      0.03456      6.75437        -0.068571     -0.329868     -0.381361
O       5.91325      3.82901     10.69932         0.066111      0.053495      0.070024
O       5.71630     15.39439     10.98775         1.050152      1.690723     -0.795855
O       5.87523      7.69833      2.75798        -0.766893      0.866129     -0.809271
O       5.82716      7.74250     15.05272         0.114539      0.187603     -0.595519
O       5.74697      7.83793      6.49757         0.675530     -0.693323     -0.159138
O       5.79262      7.76193     10.91085         0.638892     -0.258564     -0.398274
O       5.76466     11.63266      2.37515         0.144086      0.201749      0.230913
O       5.74638     11.60394     14.98425        -0.092888     -0.251867      0.188438
O       5.71691     11.67541      6.69885         0.400277      0.564101     -0.716116
O       5.84659     11.55423     10.73364         0.702132      0.293303      0.204249
O       9.77434      3.96737      2.59785        -0.181071     -2.008082     -0.131028
O       9.69426      3.94120     14.78961         0.481169      0.629322      0.485445
O       9.79398     15.57461      2.46852        -0.464988      0.393317     -0.627224
O       9.64634     15.58879     14.99193        -0.843064     -0.567449      0.266215
O       9.63724      3.81930      6.41451         0.538227      0.121517      0.284558
O       9.70805      0.00453      6.76130         0.516946     -0.000712      0.063537
O       9.45749      3.82416     10.73731         0.261681     -0.569509      0.185903
O       9.69632     15.48623     10.58908         0.212994      0.979183      0.610899
O       9.67132      7.78741      2.56313        -0.136303     -0.427014     -0.005521
O       9.60747      7.83643     14.87140         0.658088     -0.782796      0.044435
O       9.67559      7.86020      6.69248         0.122325     -0.846400     -0.400061
O       9.79905      7.69136     10.47848         0.180862     -0.222518      0.794265
O       9.72992     11.63789      2.51628        -0.360978     -0.137104      0.177224
O       9.70206     11.68640     14.93333         0.217394      0.491122      0.100317
O       9.61997     11.76892      6.55779        -0.340390     -0.770831     -0.231825
O       9.84121     11.60581     10.62612        -0.147490      0.754734      0.302101
