  # total energy = -7879.46533699 
CRSYTAL
PRIMVEC
    15.6080000000000005    0.0000000000000000    0.0000000000000000
     0.0000000000000000   15.6080000000000005    0.0000000000000000
     0.0000000000000000    0.0000000000000000   16.6239999999999988
PRESSURE
-0.656105 -0.814243 -1.53837 0.252962 -0.402389 0.027992
PRIMCOORD
320 1
Pb       3.74132      3.83386      4.16924         0.331797      0.025485     -0.902262
Pb       3.74794      3.74036     16.54041         0.316724      0.346613      0.149558
Pb       3.92683     15.44755      4.29129        -0.101164     -0.150270     -0.500674
Pb       4.01605      0.00726      0.03780        -0.270360      0.034980     -0.556585
Pb       0.01894      3.92515      4.16934        -0.350100     -0.011634     -0.945745
Pb       0.00162      3.94400      0.01299         0.248861     -0.164887     -0.355510
Pb       0.06868     15.57089      4.31058         0.144451      0.015321     -0.313833
Pb      15.59782     15.57921      0.02388         0.330853      0.142683     -0.721270
Pb       4.06771      4.01101      8.27341        -0.452360      0.062545     -0.203185
Pb       3.88866     15.51119      8.39033        -0.238494      0.234465     -0.656209
Pb       0.08404      3.93555      8.27422        -0.233141      0.317850      0.244247
Pb      15.55333      0.01024      8.38971         0.402442     -0.255614     -0.540404
Pb       3.94196      3.80696     12.35999        -0.262410      0.315506     -0.171496
Pb       3.96175      0.15648     12.40098         0.012276     -0.471832      0.242030
Pb      15.53337      3.91271     12.44970        -0.130966     -0.115970     -0.678511
Pb      15.55071     15.48114     12.30008        -0.137510      0.864049      0.402902
Pb       3.97355      7.67725      4.15900        -0.203366      0.282733     -0.468245
Pb       3.88174      7.85372      0.05354         0.055112     -0.238980     -0.099290
Pb      15.47064      7.71072      4.15130         0.006672      0.330870     -0.133652
Pb      15.60437      7.77330      0.01293         0.090343     -0.359408      0.139589
Pb       3.84925      7.83348      8.29479         0.204183      0.095978      0.190476
Pb       0.13801      7.84003      8.07968        -0.508330     -0.502115      0.604411
Pb       3.78829      7.77516     12.44758         0.244975      0.013458     -0.878839
Pb       0.03979      7.74004     12.37636         0.191931     -0.501176     -0.047471
Pb       3.97328     11.58940      4.27508         0.068789      0.576659     -0.084462
Pb       3.88975     11.66810      0.04654         0.062551      0.404558     -0.862924
Pb       0.06618     11.62947      4.21546        -0.607121      0.198179      0.094336
Pb       0.00604     11.56172     16.54641         0.276495      0.595583      0.225648
Pb       3.90788     11.54785      8.40844         0.224672     -0.115556     -0.469556
Pb       0.03416     11.73015      8.37599        -0.222384      0.240830     -0.445542
Pb       3.77641     11.69484     12.56276         0.424343     -0.162325      0.064507
Pb      15.37622     11.81867     12.49853         0.788599     -0.212733     -0.415693
Pb       7.89021      4.03882      4.12533        -0.597293     -0.246383     -0.445789
Pb       7.78672      3.75792      0.10759        -0.289585      0.105309     -0.230378
Pb       7.91603      0.05690      4.20745        -0.522227     -0.219975     -0.262192
Pb       7.80876     15.46959     16.55259        -0.107900      0.123751     -0.166463
Pb       7.90776      3.89462      8.12413         0.088934      0.151928     -0.088360
Pb       7.70000      0.01134      8.29046         0.225506     -0.118004     -0.170820
Pb       7.81896      4.01085     12.56204        -0.024309     -0.055907     -0.567172
Pb       7.76394      0.01354     12.37125         0.143821      0.009577     -0.114457
Pb       7.84741      7.77082      4.17875        -0.249745      0.104483     -0.455661
Pb       7.79172      7.58262      0.08685        -0.072933      0.391104     -0.298462
Pb       7.68427      7.74848      8.34660         0.650356      0.181968     -0.235088
Pb       7.65114      7.98770     12.56419        -0.051236     -0.000389     -0.193516
Pb       7.78172     11.61373      4.16024        -0.229919      0.446029     -0.050247
Pb       7.89623     11.60266      0.07172        -0.598745      0.306535     -0.999431
Pb       7.86534     11.58855      8.45877        -0.498104     -0.008326     -0.144853
Pb       7.73387     11.83171     12.49608        -0.049279     -0.312745      0.468256
Pb      11.56090      3.92314      3.92289         0.591819     -0.255803      0.815208
Pb      11.61096      3.68218     16.53051         0.317579      0.543682      0.535780
Pb      11.92727      0.07994      4.16001        -0.855541     -0.012101      0.318863
Pb      11.79037     15.59500     16.60661        -0.288537     -0.082684      0.189531
Pb      11.68195      3.66877      8.13341        -0.110089      0.749035      0.662609
Pb      11.82811     15.47196      8.34767        -0.509678      0.182926     -0.495518
Pb      11.52477      3.95152     12.33467         1.260471      0.031559     -0.017097
Pb      11.68970      0.08622     12.57217         0.119142     -0.378977     -0.666190
Pb      11.65406      8.08935      4.20924        -0.088803     -0.379616     -0.455141
Pb      11.77236      7.74197     16.57111        -0.310155     -0.125291      0.597552
Pb      11.71320      7.70344      8.32848        -0.248255     -0.129025     -0.071649
Pb      11.87122      7.62450     12.41611        -0.454893      0.432690     -0.011157
Pb      11.62926     12.02856      4.08733         0.424986     -0.966318     -0.004937
Pb      11.58232     11.69921      0.06735         0.290974      0.027976     -0.301923
Pb      11.51709     11.52690      8.18507         0.572141      0.906294      0.596620
Pb      11.67907     11.53644     12.54702        -0.519246      0.136740     -0.464534
Ti       1.89057      1.88875      2.19169         0.122901      0.827116      0.244363
Ti       1.84221      1.90783     14.57939         0.181104      0.485062      0.736002
Ti       1.87682     13.64588      2.18362         0.937780      0.390974     -0.606310
Ti       1.89102     13.63726     14.60363         0.355226      0.030209      1.301566
Ti      13.66319      1.93921      2.20206        -0.425514      0.647260      0.270458
Ti      13.55457      1.92486     14.55652         1.318560      0.466456     -0.610843
Ti      13.72270     13.71854      2.13127        -0.492669     -0.768039      0.846277
Ti      13.61360     13.54811     14.68160         0.172702      0.677323      0.452688
Ti       1.86493      1.97343      6.35665         1.103848     -1.055845      0.002631
Ti       1.91432     13.53873      6.36980         0.043626      1.079388      1.132083
Ti      13.68371      1.97370      6.32293        -0.959558     -0.327442     -0.641745
Ti      13.64482     13.64034      6.33942        -0.279719     -0.541036      1.347725
Ti       1.93806      1.89048     10.51358        -0.616655      0.197569      0.684634
Ti       2.01176     13.59128     10.53452        -0.632688      0.492274      0.116982
Ti      13.52787      1.96478     10.48309         1.371513      0.309033      1.475544
Ti      13.50139     13.54282     10.51417         0.408486      0.889842     -0.189552
Ti       1.88884      5.95928      2.16171        -0.089930     -1.564146      0.746261
Ti       2.05038      5.78956     14.53656        -1.720502      0.040193     -0.032716
Ti      13.50242      5.86754      2.21695         0.774479     -0.271647     -0.304908
Ti      13.68819      5.82253     14.68128         0.309545     -1.249101     -1.250156
Ti       1.96263      5.79753      6.22247         0.343047      0.437250      1.626483
Ti      13.67756      5.79982      6.25085        -0.125717      0.218030      0.525324
Ti       1.95667      5.74695     10.46872        -0.061120      0.627030      1.331450
Ti      13.58694      5.87956     10.39337         1.135520     -1.755964     -1.328863
Ti       1.86563      9.82892      2.28253         0.223082     -1.038076      0.100495
Ti       1.91576      9.64951     14.67608         0.620961      1.496269     -0.223864
Ti      13.59904      9.75767      2.31501        -0.600757      0.642313     -0.407254
Ti      13.63288      9.63770     14.74807         0.192814      0.185796     -0.686641
Ti       1.88788      9.74747      6.29752         0.827418     -0.098130      0.007355
Ti      13.59208      9.72212      6.39289         0.766973      0.297117     -0.542308
Ti       1.85567      9.75518     10.54989         1.036410     -0.228756     -0.433205
Ti      13.67456      9.67910     10.41326        -0.576594      0.641136     -0.473327
Ti       5.75529      1.93337      2.22387         0.371856      0.188715     -0.692942
Ti       5.85495      1.99300     14.63108        -0.756980     -0.769223      0.556960
Ti       5.81012     13.64799      2.27652        -0.064823      0.085502     -0.469385
Ti       5.74880     13.63480     14.68555         0.180400     -0.420192     -1.279872
Ti       5.72368      1.94251      6.24656         0.364400      0.048046      0.832330
Ti       5.78788     13.62579      6.39500         0.383722     -0.727757     -1.086670
Ti       5.92305      2.08933     10.40083         0.018222     -0.839227      0.066840
Ti       5.81676     13.73895     10.58107         0.155159     -0.446582      0.741566
Ti       5.79674      5.90599      2.11615         0.596097     -0.821141     -0.356425
Ti       5.91667      5.89942     14.64539        -0.371870     -0.921712      0.298258
Ti       5.86039      5.89799      6.27635         0.201448     -0.418382      0.751526
Ti       5.92084      5.93369     10.43305        -2.228574      0.860570     -0.191277
Ti       5.78506      9.77955      2.24640         0.439027     -0.538165     -0.387153
Ti       5.82694      9.69617     14.75314         0.434096      1.797774     -1.338396
Ti       5.85677      9.74900      6.32205        -0.476248      1.513281      0.777673
Ti       5.75006      9.89419     10.63648        -0.042010     -1.270590     -0.558752
Ti       9.67518      1.87723      2.18946        -0.532210      0.028863     -0.263568
Ti       9.69082      1.90501     14.60679        -0.630432     -0.659064     -0.053673
Ti       9.68271     13.64623      2.22394        -0.100776      1.118357      0.081244
Ti       9.81017     13.64090     14.63928        -0.993098     -0.150468     -0.309572
Ti       9.69954      1.78834      6.38521         0.745157      0.169903     -0.135429
Ti       9.67702     13.58702      6.28632         0.059810      1.156513      1.187654
Ti       9.78272      1.95838     10.49746        -0.607641     -0.355473     -1.326926
Ti       9.74676     13.63224     10.50068        -0.655591      0.099988      0.587807
Ti       9.71212      5.92452      2.09330        -0.050959     -0.750375      0.094399
Ti       9.82012      5.81524     14.62189        -1.844820      0.861359     -0.310219
Ti       9.90577      5.83147      6.29150        -1.798096      0.421315      1.029331
Ti       9.65151      5.97056     10.48903         1.085702     -1.054181     -1.035013
Ti       9.67044      9.73817      2.10700         0.630970      0.385907      1.701968
Ti       9.76322      9.67699     14.62517        -1.108047     -0.150616     -0.110900
Ti       9.71901      9.74009      6.35128        -0.829759     -0.926089     -0.552465
Ti       9.71058      9.77461     10.58635        -0.010509     -0.138073     -0.705191
O       1.87732      2.04987      0.41296        -0.449042     -0.141972      0.014939
O       1.90113      2.05888     12.83202         0.314616     -0.205786     -0.671994
O       1.77903     13.71745      0.36780         0.017276     -0.085930      1.085274
O       1.86164     13.60305     12.83296         0.274913     -0.183340     -0.096771
O      13.47756      1.89309      0.43228         0.184950      0.315161     -0.759770
O      13.51304      2.09004     12.75203        -0.139653     -0.449997      1.452937
O      13.74942     13.80008      0.36158        -0.212732     -0.479002     -0.262244
O      13.45682     13.45596     12.92209        -0.028223      0.162664     -0.724004
O       1.90068      1.99294      4.51916        -0.310365      0.176608      0.634666
O       1.89932     13.56103      4.61037        -0.186001      0.315681     -0.632225
O      13.72006      1.88058      4.50283        -0.178158     -0.172895      0.135516
O      13.52197     13.65107      4.59838         0.644711      0.369822     -1.120355
O       1.81245      1.79629      8.76367         0.228693      0.325980     -0.676366
O       1.87717     13.58381      8.75301        -0.163467      0.415748     -0.404888
O      13.51323      1.92639      8.71749         0.279796     -0.236626     -1.110910
O      13.58115     13.65566      8.74058         0.326976      0.020364     -0.212647
O       1.95078      5.77418      0.39892        -0.109523      0.736930     -0.516200
O       1.83385      5.95647     12.73592         0.426208     -0.480130      0.475314
O      13.50786      5.84044      0.41079        -0.098307      0.093487     -0.603033
O      13.59977      5.85629     12.81257         0.236479      0.414226      0.608515
O       2.08871      5.76500      4.49334        -0.381244      0.127370     -1.139606
O      13.75383      5.89650      4.46710        -0.455886     -0.048093      0.076303
O       1.91642      5.80999      8.73219         0.096025      0.169104     -1.617420
O      13.66201      5.89808      8.55930        -0.032173     -0.432530      0.968962
O       1.89583      9.65301      0.50738        -0.156770      0.081680     -0.276649
O       1.99006      9.78942     12.89495        -0.663846     -0.094306     -0.169427
O      13.49744      9.70383      0.50681         0.051531     -0.066055     -0.660306
O      13.90859      9.39479     12.99673        -0.772167      0.992740      0.157025
O       1.84942      9.84187      4.52103         0.286279      0.065241     -0.262037
O      13.50957      9.58715      4.55981         0.288941      0.403477      0.451716
O       1.95017      9.69298      8.72696        -0.067114      0.381882     -0.412676
O      13.62384      9.71009      8.62219        -0.074800      0.219483      0.450029
O       5.76737      1.71871      0.37123         0.206957      0.736188      1.161309
O       5.80136      2.13374     12.82821         0.236964     -0.371546     -0.073486
O       5.73301     13.58436      0.40178         0.322577      0.347763      0.522861
O       5.65819     13.58029     12.82452         0.233379      0.402965      0.879292
O       5.75675      2.02095      4.48210        -0.272706     -0.327702     -0.404177
O       5.70152     13.45745      4.55122        -0.392713      0.745399      1.000530
O       5.90268      1.92495      8.62168        -0.246220      0.233378      0.136182
O       5.97308     13.82770      8.83728        -0.113376     -0.410787     -1.715031
O       5.66996      6.02437      0.31076         0.512090     -0.028717     -0.513322
O       5.98680      5.89168     12.80673         0.057363     -0.466387      0.615211
O       5.99569      6.00241      4.49472        -0.425779     -0.086899      0.394969
O       5.61824      5.97078      8.60522         0.747323      0.084485      0.714270
O       5.80970      9.79781      0.43164        -0.165652     -0.059175     -0.356030
O       5.90654      9.82101     12.86428        -0.305792     -0.458652      0.748987
O       5.79818      9.83737      4.54459        -0.018960     -0.041769     -0.813172
O       5.55550      9.72829      8.84104         0.509727      0.496069     -0.652348
O       9.62143      2.08828      0.36529         0.226454     -0.155542      0.197919
O       9.65352      1.74677     12.79505         0.248780      0.788669      0.585614
O       9.64259     13.71074      0.44462        -0.116099     -0.757435     -0.597718
O       9.90407     13.61182     12.86134         0.125904      0.304457      0.024296
O       9.73371      1.65619      4.60183        -0.263402      0.432884     -0.929997
O       9.81521     13.76952      4.55169        -0.374441      0.281107     -1.056965
O       9.84648      2.03864      8.61825        -0.376368      0.082581      0.797406
O       9.39614     13.43333      8.76820         0.694308      0.129560     -0.842652
O       9.70763      5.64520      0.31762         0.190135      0.726707     -0.089207
O       9.49496      5.90225     12.76920         0.489008     -0.089599      0.446243
O       9.49611      6.07879      4.56276         0.564111     -0.392590     -0.341742
O       9.77073      5.78770      8.68768        -0.094880     -0.206603     -0.074401
O       9.78076      9.90266      0.35847         0.109918      0.118394     -1.057087
O       9.62844      9.52175     12.84015         0.274916      0.403548     -0.290490
O       9.65245      9.66921      4.53074         0.196998     -0.138816      0.689852
O       9.67351      9.81607      8.72782         0.434974      0.722341     -0.344937
O       3.79369      1.99593      2.35482         0.257424      0.154014      0.584376
O       3.78333      1.98529     15.01601         0.573074     -0.208430     -0.436059
O       3.80064     13.67656      2.54953        -0.421321     -0.299801     -0.104484
O       3.76318     13.64127     14.98700        -0.201465      0.188012     -0.014162
O      15.48196      2.05166      2.43530         0.800848     -0.301016     -0.030906
O      15.49767      2.04912     14.89260        -0.648140      0.402346      0.225866
O      15.60084     13.79499      2.53536        -1.079662     -0.338129      0.187419
O      15.51810     13.53470     14.84705         0.064013      0.197952      0.208391
O       3.86070      1.97153      6.59408         0.120164      0.259037      0.054732
O       3.84334     13.63795      6.64911        -0.428865      0.164354      0.385411
O      15.57238      1.99032      6.70979         0.489298     -0.034958     -0.096712
O      15.57460     13.68058      6.74429        -0.038416      0.178979     -0.257096
O       3.93318      1.92646     10.77016        -0.096226      0.277007     -0.033497
O       3.86556     13.80679     10.64269         0.160960     -0.523180      0.392749
O      15.53307      1.83709     10.85495         0.167443      0.287758     -0.412862
O      15.49685     13.71267     10.83635         0.040229     -0.608391     -0.084449
O       3.99310      5.96179      2.41041        -2.633866      0.511166      0.780900
O       3.80262      5.79791     14.79937         2.358204      0.424618      0.180114
O      15.49684      5.81219      2.35876         0.119369      0.486548      0.430885
O      15.60168      5.75548     14.82906        -1.001562      0.361370      0.670967
O       3.82826      5.78401      6.59125         1.281904      0.500139     -0.189740
O       0.06043      5.81575      6.44287        -0.396041      0.062808      0.471448
O       3.87096      5.92233     10.75536         0.244712     -0.157173      0.407882
O      15.60514      5.67262     10.66423        -0.780919      0.596015      0.505230
O       3.80470      9.63542      2.45551         0.517632      0.477527      0.374960
O       3.87932      9.77175     15.02803        -0.046781     -0.606308      0.159627
O      15.51906      9.80437      2.58023        -0.379195     -0.433021     -0.118049
O      15.59562      9.63081     15.21812        -0.556418      0.243176     -0.721501
O       3.87987      9.92813      6.58619        -0.721182     -0.479194      0.011742
O      15.57991      9.64566      6.49150        -0.152346      0.027853      0.523068
O       3.82740      9.75016     10.88656        -0.103618      0.497736      0.358359
O      15.56720      9.85552     10.67668        -0.577680     -0.311537      0.475003
O       7.66605      2.11750      2.49263         0.434865     -0.422168      0.081408
O       7.74920      1.81835     15.03191         0.495395      0.395514     -0.537917
O       7.68210     13.71105      2.70656         0.724011     -0.316099     -0.625458
O       7.74325     13.50270     14.83441        -0.155103      0.744843      0.384891
O       7.76719      1.82200      6.56731        -0.047160      0.468705      0.140953
O       7.72688     13.69125      6.46542         0.341194      0.227997      0.313578
O       7.79970      1.94533     10.71333        -0.242141      0.144474      0.171125
O       7.82817     13.62038     11.02501        -0.832138      0.317750     -0.257474
O       7.79269      5.91255      2.38572         0.358118     -0.158560     -0.031947
O       7.71883      5.86373     15.11908         0.062543     -0.401861     -0.625898
O       7.73296      5.94341      6.81530        -0.132478      0.038117     -0.630624
O       7.75742      5.89806     10.57846         0.062957     -0.138036      0.182698
O       7.75196      9.86707      2.40439         0.300990      0.049456      0.130547
O       7.80019      9.83990     14.86012        -0.704056      0.119737      0.866366
O       7.78913      9.86313      6.56426        -0.303611     -0.347397      0.497351
O       7.81052      9.87098     10.62418        -1.058529     -0.455054      0.820852
O      11.51413      1.90741      2.51885         0.856314      0.069644     -0.028974
O      11.60005      1.89801     14.99478        -0.137497     -0.124011     -0.425831
O      11.64555     13.82869      2.44452        -0.085384     -0.663589     -0.041128
O      11.67994     13.71388     15.13970         0.402763     -0.442893     -0.153304
O      11.68167      2.00658      6.56841         0.721825     -0.466714     -0.124482
O      11.69688     13.61440      6.59443        -0.031650     -0.140934      0.680592
O      11.67801      1.92806     10.79935        -1.091782     -0.166738      0.312592
O      11.60970     13.63555     10.56232         0.430506     -0.226215      0.550866
O      11.59547      5.96568      2.49892        -0.314713     -0.287834      0.183113
O      11.58949      5.99902     14.71488         0.678971     -0.072196      0.436392
O      11.71020      5.75255      6.48545         0.709790      0.630207     -0.057706
O      11.72192      5.79792     10.67526        -0.540420      0.642466      0.791320
O      11.59636      9.88967      2.60478        -0.356445     -0.551783     -0.321510
O      11.67624      9.70223     14.68256         0.573265     -0.288918      0.865402
O      11.66108      9.79828      6.67349         0.130595     -0.353668     -0.352308
O      11.64971      9.79646     10.85413         1.200334     -0.504068      0.035701
O       1.79227      4.00318      2.54739         0.767832     -0.721720     -0.017410
O       1.96314      3.92733     14.90475        -0.535693     -0.134698      0.200005
O       1.81922      0.02782      2.61425         0.159625      0.034848     -0.310930
O       1.77403      0.09202     14.98669         0.012227     -1.509180     -0.333713
O      13.46028      3.90349      2.49829         0.017173     -0.145743     -0.107159
O      13.35809      3.94378     14.88391         0.568970     -0.249815      0.410940
O      13.54665     15.60133      2.40508         0.472516      0.327476      0.422354
O      13.62500      0.01946     14.79799        -0.344489     -0.183020      0.260021
O       2.03237      3.87572      6.73374        -0.757561     -0.002233     -0.309116
O       1.91746      0.02323      6.66021        -0.238537     -0.002515     -0.184697
O      13.70767      3.87877      6.44289         0.029630      0.542946      0.645772
O      13.67938      0.06208      6.60786        -0.188743     -0.976952      0.347490
O       1.99392      3.87147     10.78356        -0.066230     -0.495527     -0.093184
O       2.01547     15.60789     10.98271        -0.661611      0.037461     -0.629878
O      13.52016      3.88508     10.69872         0.401967      0.008476      0.133029
O      13.44881     15.56824     10.98674         0.441584     -0.446993     -0.637296
O       1.74426      7.77851      2.64679         0.591313      0.341658     -0.530292
O       1.95285      7.84567     14.83743        -0.215968     -1.671562      0.689889
O      13.42338      7.80460      2.50477         0.770678      0.397821      0.013124
O      13.56615      7.68264     15.09396         0.407228      1.080126      0.072252
O       2.01643      7.81331      6.49366        -0.199481     -0.414109      0.230677
O      13.67174      7.75532      6.71679        -0.385752      0.214859     -0.666934
O       1.88623      7.88730     10.80340        -0.125993     -0.740554      0.122448
O      13.65105      7.79742     10.65592        -0.006632     -0.059974      0.535223
O       1.73169     11.72933      2.52908         0.601627     -0.061690     -0.475640
O       1.92031     11.65189     15.04448        -0.387548      0.377536     -0.068570
O      13.52354     11.72772      2.58118         0.484003      0.767391     -0.506165
O      13.59196     11.61307     14.98240        -0.002264     -0.271623      0.093656
O       1.76510     11.65893      6.63589         0.165668      0.286909      0.251933
O      13.78247     11.67324      6.67757        -0.515976     -0.201440     -0.235160
O       1.91840     11.72935     10.77708         0.068732      0.015652      0.330321
O      13.60913     11.62006     10.89814        -0.171860      0.396989     -0.098774
O       5.78027      4.03332      2.42471         0.090757     -1.453249      0.034750
O       5.91996      3.80634     14.98227        -0.314945      1.434126      0.091016
O       5.69149     15.53867      2.52648         0.170162      1.314974      0.267937
O       5.62782      0.01922     14.84858         0.614826     -0.631947      0.235076
O       5.88634      4.01471      6.53873        -0.180812     -0.953663      0.194219
O       5.70444      0.02463      6.62687         0.165774     -0.340039     -0.243326
O       5.81532      3.96729     10.59965         0.055519      0.093638      0.345633
O       5.81880      0.00620     10.81591         0.450073      1.053447      0.410781
O       5.91870      7.80879      2.47892        -0.281516      1.572792      0.252566
O       5.88304      7.79508     14.86874        -0.357599      0.267512      0.177564
O       5.78512      7.96421      6.62977        -0.102235     -1.850264      0.043426
O       5.76033      7.90177     10.79536         0.686246     -1.230583      0.320762
O       5.87422     11.73608      2.57401        -0.788646     -1.076355     -0.300813
O       5.60496     11.73026     14.87610         0.357377     -0.577082      0.709377
O       5.68966     11.73867      6.75508         0.768828      0.194399      0.136772
O       5.74339     11.77452     10.84280         0.089074     -0.048202     -0.193080
O       9.72741      3.99037      2.55016        -0.471077     -0.415410     -0.005640
O       9.67124      3.92809     14.76526        -0.044585     -1.017839      0.009861
O       9.47991      0.03250      2.27709         0.025877      0.199442      0.538606
O       9.70239     15.57296     14.91603        -0.055553      0.350820      0.339250
O       9.78472      3.91870      6.40010        -0.958016     -0.044762      0.517799
O       9.84866     15.56132      6.77131        -0.525405     -0.553870      0.090171
O       9.80875      3.84488     10.80770        -0.886287      0.340935      0.202003
O       9.67119     15.59909     10.65389         0.172563     -0.213295      0.317076
O       9.60580      7.87538      2.29970         0.311699     -0.132444     -0.018232
O       9.56643      7.79198     15.03615         0.522963      0.069617      0.043362
O       9.79059      7.81234      6.82425        -0.113968      0.243086     -0.694024
O       9.82584      7.76068     10.54190        -0.267422      0.861912      0.710930
O       9.67759     11.80604      2.52285        -0.043783     -0.647546     -0.218418
O       9.79318     11.73388     14.87324         0.382765     -0.792166      0.638179
O       9.69675     11.71473      6.44576         0.325833     -0.439376      0.773763
O       9.71622     11.65086     10.90442         0.346518      0.500891      0.207896
